*HEADING
  Model: balk
*NODE
      1,           0.,           0.,           0.
      2,           1.,           0.,           0.
      3,           1.,           1.,           0.
      4,           0.,           1.,           0.
      5,           0.,           0.,           1.
      6,           1.,           0.,           1.
      7,           1.,           1.,           1.
      8,           0.,           1.,           1.
      9,         0.25,           0.,           0.
     10,          0.5,           0.,           0.
     11,         0.75,           0.,           0.
     12,           1.,         0.25,           0.
     13,           1.,          0.5,           0.
     14,           1.,         0.75,           0.
     15,         0.75,           1.,           0.
     16,          0.5,           1.,           0.
     17,         0.25,           1.,           0.
     18,           0.,         0.75,           0.
     19,           0.,          0.5,           0.
     20,           0.,         0.25,           0.
** ... 160 like lines cut
*NSET,NSET=SET1,GENERATE
  1,180
*ELEMENT, TYPE=C3D20R
  1,   1,  10,  47,  19,  37,  57,  78,  72,   9,  45,  46,  20,  56,  76,  77,
      73,  38,  55,  75,  70
  2,  10,   2,  13,  47,  57,  34,  62,  78,  11,  12,  48,  45,  58,  61,  79,
      76,  55,  33,  60,  75
  3,  19,  47,  16,   4,  72,  78,  67,  43,  46,  49,  17,  18,  77,  80,  68,
      71,  70,  75,  65,  42
  4,  47,  13,   3,  16,  78,  62,  40,  67,  48,  14,  15,  49,  79,  63,  66,
      80,  75,  60,  39,  65
  5,  37, 157, 178, 172,   5,  22,  52,  31, 156, 176, 177, 173,  21,  50,  51,
      32,  36,  59,  81,  74
  6, 157,  34, 162, 178,  22,   6,  25,  52, 158, 161, 179, 176,  23,  24,  53,
      50,  59,  35,  64,  81
  7, 172, 178, 167,  43,  31,  52,  28,   8, 177, 180, 168, 171,  51,  54,  29,
      30,  74,  81,  69,  44
  8, 178, 162,  40, 167,  52,  25,   7,  28, 179, 163, 166, 180,  53,  26,  27,
      54,  81,  64,  41,  69
*ELSET,ELSET=SET2,GENERATE
  1,8
*ELSET,ELSET=EALL,GENERATE
  1,8
*MATERIAL,NAME=EL
*ELASTIC
  210000.,.3
*SOLID SECTION,MATERIAL=EL,ELSET=EALL
*BOUNDARY
  1,1
  1,2
  1,3
  2,2
  2,3
  4,3
*EQUATION
    9
   78,    3,    1.,   37,    3,       .25,   34,    3,   .25,   40,    3,   .25
   43,    3,   .25,   57,    3,       -.5,   62,    3,   -.5,   67,    3,   -.5
   72,    3,   -.5,
    2
  157,    3,        1.,   57,    3,       -1.,
*STEP
*STATIC
*EL PRINT,ELSET=SET2
  S
*NODE PRINT,NSET=SET1
  U
*BOUNDARY
  1,1
  1,2
  1,3
  2,2
  2,3
  4,3
*CLOAD
  5,3,1.
  6,3,1.
  7,3,1.
  8,3,1.
*EQUATION
    9
   78,    3,    1.,   37,    3,       .25,   34,    3,   .25,   40,    3,   .25
   43,    3,   .25,   57,    3,       -.5,   62,    3,   -.5,   67,    3,   -.5
   72,    3,   -.5,
    2
  157,    3,        1.,   57,    3,       -1.,
*END STEP
