*NODE, NSET=Nall
       1,1.000000000000e+00,0.000000000000e+00,0.000000000000e+00
       2,2.779600000000e-01,5.939900000000e-02,0.000000000000e+00
       3,9.975400000000e-01,3.451300000000e-04,0.000000000000e+00
       4,9.939100000000e-01,8.542400000000e-04,0.000000000000e+00
       5,9.888700000000e-01,1.560400000000e-03,0.000000000000e+00
       6,9.825600000000e-01,2.440600000000e-03,0.000000000000e+00
       7,9.750500000000e-01,3.482200000000e-03,0.000000000000e+00
       8,9.663400000000e-01,4.678100000000e-03,0.000000000000e+00
       9,9.564900000000e-01,6.011000000000e-03,0.000000000000e+00
      10,9.455500000000e-01,7.471100000000e-03,0.000000000000e+00
      11,9.335500000000e-01,9.051500000000e-03,0.000000000000e+00
      12,9.205400000000e-01,1.073900000000e-02,0.000000000000e+00
      13,9.065600000000e-01,1.252500000000e-02,0.000000000000e+00
      14,8.916600000000e-01,1.439600000000e-02,0.000000000000e+00
      15,8.758900000000e-01,1.634100000000e-02,0.000000000000e+00
      16,8.592700000000e-01,1.835100000000e-02,0.000000000000e+00
      17,8.418800000000e-01,2.041400000000e-02,0.000000000000e+00
      18,8.237700000000e-01,2.251800000000e-02,0.000000000000e+00
      19,8.049500000000e-01,2.465700000000e-02,0.000000000000e+00
      20,7.855100000000e-01,2.681600000000e-02,0.000000000000e+00
** ... 7486 like lines cut
*ELEMENT, TYPE=F3D6, ELSET=Eall
     1,     1,   131,   156,  3754,  3884,  3909
     2,     3,     1,   164,  3756,  3754,  3917
     3,     1,   162,   164,  3754,  3915,  3917
     4,     1,   160,   162,  3754,  3913,  3915
     5,     1,   158,   160,  3754,  3911,  3913
     6,     1,   156,   158,  3754,  3909,  3911
     7,     2,    42,   949,  3755,  3795,  4702
     8,    44,     2,   944,  3797,  3755,  4697
     9,     2,   949,   944,  3755,  4702,  4697
    10,     4,     3,   166,  3757,  3756,  3919
    11,     3,   164,   166,  3756,  3917,  3919
    12,     5,     4,   199,  3758,  3757,  3952
    13,     4,   191,   199,  3757,  3944,  3952
    14,     4,   166,   191,  3757,  3919,  3944
    15,     6,     5,   201,  3759,  3758,  3954
    16,     5,   199,   201,  3758,  3952,  3954
    17,     7,     6,   382,  3760,  3759,  4135
    18,     6,   267,   382,  3759,  4020,  4135
    19,     6,   201,   267,  3759,  3954,  4020
    20,     8,     7,   379,  3761,  3760,  4132
** ... 7331 like lines cut
** Surfaces based on in
*SURFACE, NAME=Sin
315, S3
314, S3
321, S3
323, S3
326, S3
327, S3
329, S3
331, S3
334, S3
352, S3
355, S3
357, S3
359, S3
362, S3
364, S3
** Surfaces based on out
*SURFACE, NAME=Sout
318, S3
317, S3
336, S3
339, S3
340, S3
342, S3
346, S3
347, S3
351, S3
** Surfaces based on wall
*SURFACE, NAME=Swall
2, S3
1, S3
7, S3
8, S3
10, S3
12, S3
15, S3
17, S3
20, S3
22, S3
25, S3
26, S3
29, S3
32, S3
34, S3
37, S3
38, S3
42, S3
43, S3
45, S3
** ... 111 like lines cut
** Surfaces based on sliding
*SURFACE, NAME=Ssliding
2, S1
1, S1
6, S1
5, S1
4, S1
3, S1
7, S1
8, S1
9, S1
10, S1
11, S1
12, S1
14, S1
13, S1
15, S1
16, S1
17, S1
19, S1
18, S1
20, S1
** ... 14682 like lines cut
*MATERIAL,NAME=AIR
*CONDUCTIVITY
0.
*FLUID CONSTANTS
1.,1.d-20,293.
*SPECIFIC GAS CONSTANT
0.285714286d0
*SOLID SECTION,ELSET=Eall,MATERIAL=AIR
*PHYSICAL CONSTANTS,ABSOLUTE ZERO=0.
*INITIAL CONDITIONS,TYPE=FLUID VELOCITY
Nall,1,1.
Nall,2,0.
Nall,3,0.
*INITIAL CONDITIONS,TYPE=PRESSURE
Nall,0.49603175
*INITIAL CONDITIONS,TYPE=TEMPERATURE
Nall,1.73611111
*VALUES AT INFINITY
1.73611111,1.,0.49603175,1.,1.
**
*STEP,INCF=4000
*CFD,COMPRESSIBLE,SCHEME=MODSMART,SIMPLEC,STEADY STATE,2D
1.E10,1.E10
*BOUNDARYF
Sin,S,1,1,1.
Sin,S,2,2,0.
Sin,S,3,3,0.
Sin,S,8,8,0.49603175
Sin,S,11,11,1.73611111
*MASS FLOW
Swall,M,0.
Ssliding,M,0.
*CONTROLS,PARAMETERS=CFD
20,0,0,4
*NODE FILE,FREQUENCYF=4000
VF,PSF,CP,TSF,TTF,MACH
*END STEP
