*NODE, NSET=Nall
       1,4.000000000000e+00,1.000000000000e+00,0.000000000000e+00
       2,3.900000000000e+00,1.000000000000e+00,0.000000000000e+00
       3,3.900000000000e+00,1.000000000000e+00,1.000000000000e+00
       4,4.000000000000e+00,1.000000000000e+00,1.000000000000e+00
       5,4.000000000000e+00,1.100000000000e+00,0.000000000000e+00
       6,3.900000000000e+00,1.100000000000e+00,0.000000000000e+00
       7,3.900000000000e+00,1.100000000000e+00,1.000000000000e+00
       8,4.000000000000e+00,1.100000000000e+00,1.000000000000e+00
       9,4.000000000000e+00,1.200000000000e+00,0.000000000000e+00
      10,3.900000000000e+00,1.200000000000e+00,0.000000000000e+00
      11,3.900000000000e+00,1.200000000000e+00,1.000000000000e+00
      12,4.000000000000e+00,1.200000000000e+00,1.000000000000e+00
      13,4.000000000000e+00,1.300000000000e+00,0.000000000000e+00
      14,3.900000000000e+00,1.300000000000e+00,0.000000000000e+00
      15,3.900000000000e+00,1.300000000000e+00,1.000000000000e+00
      16,4.000000000000e+00,1.300000000000e+00,1.000000000000e+00
      17,4.000000000000e+00,1.400000000000e+00,0.000000000000e+00
      18,3.900000000000e+00,1.400000000000e+00,0.000000000000e+00
      19,3.900000000000e+00,1.400000000000e+00,1.000000000000e+00
      20,4.000000000000e+00,1.400000000000e+00,1.000000000000e+00
** ... 7798 like lines cut
*ELEMENT, TYPE=F3D8, ELSET=Eall
     1,     1,     2,     3,     4,     5,     6,     7,     8
     2,     5,     6,     7,     8,     9,    10,    11,    12
     3,     9,    10,    11,    12,    13,    14,    15,    16
     4,    13,    14,    15,    16,    17,    18,    19,    20
     5,    17,    18,    19,    20,    21,    22,    23,    24
     6,    21,    22,    23,    24,    25,    26,    27,    28
     7,    25,    26,    27,    28,    29,    30,    31,    32
     8,    29,    30,    31,    32,    33,    34,    35,    36
     9,    33,    34,    35,    36,    37,    38,    39,    40
    10,    37,    38,    39,    40,    41,    42,    43,    44
    11,    41,    42,    43,    44,    45,    46,    47,    48
    12,    45,    46,    47,    48,    49,    50,    51,    52
    13,    49,    50,    51,    52,    53,    54,    55,    56
    14,    53,    54,    55,    56,    57,    58,    59,    60
    15,    57,    58,    59,    60,    61,    62,    63,    64
    16,    61,    62,    63,    64,    65,    66,    67,    68
    17,    65,    66,    67,    68,    69,    70,    71,    72
    18,    69,    70,    71,    72,    73,    74,    75,    76
    19,    73,    74,    75,    76,    77,    78,    79,    80
    20,    77,    78,    79,    80,    81,    82,    83,    84
** ... 3720 like lines cut
** Surfaces based on wall
*SURFACE, NAME=SOLIDSURFACE
1, S1
3740, S4
21, S1
20, S2
2760, S2
40, S2
41, S1
60, S2
61, S1
80, S2
81, S1
100, S2
101, S1
120, S2
121, S1
140, S2
141, S1
160, S2
161, S1
180, S2
** ... 266 like lines cut
*MATERIAL,NAME=WATER
*DENSITY
1.
*FLUID CONSTANTS
,0.0131,293.
*SOLID SECTION,ELSET=Eall,MATERIAL=WATER
*INITIAL CONDITIONS,TYPE=FLUID VELOCITY
Nall,1,0.
Nall,2,0.
Nall,3,0.
*INITIAL CONDITIONS,TYPE=PRESSURE
Nall,1.
**
*STEP,INCF=3000
*CFD,STEADY STATE,2D
*BOUNDARYF
** BOUNDARYF based on in
781, S4, 3,, 0.000000
782, S4, 3,, 0.000000
783, S4, 3,, 0.000000
784, S4, 3,, 0.000000
785, S4, 3,, 0.000000
786, S4, 3,, 0.000000
787, S4, 3,, 0.000000
788, S4, 3,, 0.000000
789, S4, 3,, 0.000000
790, S4, 3,, 0.000000
791, S4, 3,, 0.000000
792, S4, 3,, 0.000000
793, S4, 3,, 0.000000
794, S4, 3,, 0.000000
795, S4, 3,, 0.000000
796, S4, 3,, 0.000000
797, S4, 3,, 0.000000
798, S4, 3,, 0.000000
799, S4, 3,, 0.000000
800, S4, 3,, 0.000000
** BOUNDARYF based on in
781, S4, 2,, 0.000000
782, S4, 2,, 0.000000
783, S4, 2,, 0.000000
784, S4, 2,, 0.000000
785, S4, 2,, 0.000000
786, S4, 2,, 0.000000
787, S4, 2,, 0.000000
788, S4, 2,, 0.000000
789, S4, 2,, 0.000000
790, S4, 2,, 0.000000
791, S4, 2,, 0.000000
792, S4, 2,, 0.000000
793, S4, 2,, 0.000000
794, S4, 2,, 0.000000
795, S4, 2,, 0.000000
796, S4, 2,, 0.000000
797, S4, 2,, 0.000000
798, S4, 2,, 0.000000
799, S4, 2,, 0.000000
800, S4, 2,, 0.000000
** BOUNDARYF based on in1
781, S4, 1,, 0.217500
** BOUNDARYF based on in2
782, S4, 1,, 0.622500
** BOUNDARYF based on in3
783, S4, 1,, 0.982500
** BOUNDARYF based on in4
784, S4, 1,, 1.297500
** BOUNDARYF based on in5
785, S4, 1,, 1.567500
** BOUNDARYF based on in6
786, S4, 1,, 1.792500
** BOUNDARYF based on in7
787, S4, 1,, 1.972500
** BOUNDARYF based on in8
788, S4, 1,, 2.107500
** BOUNDARYF based on in9
789, S4, 1,, 2.197500
** BOUNDARYF based on in10
790, S4, 1,, 2.242500
** BOUNDARYF based on in11
791, S4, 1,, 2.242500
** BOUNDARYF based on in12
792, S4, 1,, 2.197500
** BOUNDARYF based on in13
793, S4, 1,, 2.107500
** BOUNDARYF based on in14
794, S4, 1,, 1.972500
** BOUNDARYF based on in15
795, S4, 1,, 1.792500
** BOUNDARYF based on in16
796, S4, 1,, 1.567500
** BOUNDARYF based on in17
797, S4, 1,, 1.297500
** BOUNDARYF based on in18
798, S4, 1,, 0.982500
** BOUNDARYF based on in19
799, S4, 1,, 0.622500
** BOUNDARYF based on in20
800, S4, 1,, 0.217500
** BOUNDARYF based on out
801, S6, 8,, 1.000000
2770, S6, 8,, 1.000000
802, S6, 8,, 1.000000
803, S6, 8,, 1.000000
804, S6, 8,, 1.000000
805, S6, 8,, 1.000000
806, S6, 8,, 1.000000
807, S6, 8,, 1.000000
808, S6, 8,, 1.000000
809, S6, 8,, 1.000000
810, S6, 8,, 1.000000
811, S6, 8,, 1.000000
812, S6, 8,, 1.000000
813, S6, 8,, 1.000000
814, S6, 8,, 1.000000
815, S6, 8,, 1.000000
816, S6, 8,, 1.000000
817, S6, 8,, 1.000000
818, S6, 8,, 1.000000
819, S6, 8,, 1.000000
** ... 10 like lines cut
** BOUNDARYF based on wall
1, S1, 1,, 0.000000
3740, S4, 1,, 0.000000
21, S1, 1,, 0.000000
20, S2, 1,, 0.000000
2760, S2, 1,, 0.000000
40, S2, 1,, 0.000000
41, S1, 1,, 0.000000
60, S2, 1,, 0.000000
61, S1, 1,, 0.000000
80, S2, 1,, 0.000000
81, S1, 1,, 0.000000
100, S2, 1,, 0.000000
101, S1, 1,, 0.000000
120, S2, 1,, 0.000000
121, S1, 1,, 0.000000
140, S2, 1,, 0.000000
141, S1, 1,, 0.000000
160, S2, 1,, 0.000000
161, S1, 1,, 0.000000
180, S2, 1,, 0.000000
** ... 266 like lines cut
** BOUNDARYF based on wall
1, S1, 3,, 0.000000
3740, S4, 3,, 0.000000
21, S1, 3,, 0.000000
20, S2, 3,, 0.000000
2760, S2, 3,, 0.000000
40, S2, 3,, 0.000000
41, S1, 3,, 0.000000
60, S2, 3,, 0.000000
61, S1, 3,, 0.000000
80, S2, 3,, 0.000000
81, S1, 3,, 0.000000
100, S2, 3,, 0.000000
101, S1, 3,, 0.000000
120, S2, 3,, 0.000000
121, S1, 3,, 0.000000
140, S2, 3,, 0.000000
141, S1, 3,, 0.000000
160, S2, 3,, 0.000000
161, S1, 3,, 0.000000
180, S2, 3,, 0.000000
** ... 266 like lines cut
** BOUNDARYF based on wall
1, S1, 2,, 0.000000
3740, S4, 2,, 0.000000
21, S1, 2,, 0.000000
20, S2, 2,, 0.000000
2760, S2, 2,, 0.000000
40, S2, 2,, 0.000000
41, S1, 2,, 0.000000
60, S2, 2,, 0.000000
61, S1, 2,, 0.000000
80, S2, 2,, 0.000000
81, S1, 2,, 0.000000
100, S2, 2,, 0.000000
101, S1, 2,, 0.000000
120, S2, 2,, 0.000000
121, S1, 2,, 0.000000
140, S2, 2,, 0.000000
141, S1, 2,, 0.000000
160, S2, 2,, 0.000000
161, S1, 2,, 0.000000
180, S2, 2,, 0.000000
** ... 266 like lines cut
** BOUNDARYF based on fixz
1, S3, 3,, 0.000000
2741, S3, 3,, 0.000000
3740, S3, 3,, 0.000000
21, S3, 3,, 0.000000
1, S5, 3,, 0.000000
21, S5, 3,, 0.000000
2741, S5, 3,, 0.000000
3740, S5, 3,, 0.000000
2, S3, 3,, 0.000000
2742, S3, 3,, 0.000000
22, S3, 3,, 0.000000
2, S5, 3,, 0.000000
22, S5, 3,, 0.000000
2742, S5, 3,, 0.000000
3, S3, 3,, 0.000000
2743, S3, 3,, 0.000000
23, S3, 3,, 0.000000
3, S5, 3,, 0.000000
23, S5, 3,, 0.000000
2743, S5, 3,, 0.000000
** ... 7460 like lines cut
*NODE FILE,FREQUENCYF=3000
VF,PSF
*END STEP
