*NODE, NSET=Nall
       1,2.000000000000e+00,1.000000000000e+00,0.000000000000e+00
       2,2.025000000000e+00,1.000000000000e+00,0.000000000000e+00
       3,2.025000000000e+00,1.000000000000e+00,1.000000000000e-01
       4,2.000000000000e+00,1.000000000000e+00,1.000000000000e-01
       5,2.000000000000e+00,9.750000000000e-01,0.000000000000e+00
       6,2.025000000000e+00,9.750000000000e-01,-2.081668171172e-17
       7,2.025000000000e+00,9.750000000000e-01,1.000000000000e-01
       8,2.000000000000e+00,9.750000000000e-01,1.000000000000e-01
       9,2.000000000000e+00,9.500000000000e-01,0.000000000000e+00
      10,2.025000000000e+00,9.500000000000e-01,6.938893903907e-18
      11,2.025000000000e+00,9.500000000000e-01,1.000000000000e-01
      12,2.000000000000e+00,9.500000000000e-01,1.000000000000e-01
      13,2.000000000000e+00,9.250000000000e-01,0.000000000000e+00
      14,2.025000000000e+00,9.250000000000e-01,2.081668171172e-17
      15,2.025000000000e+00,9.250000000000e-01,1.000000000000e-01
      16,2.000000000000e+00,9.250000000000e-01,1.000000000000e-01
      17,2.000000000000e+00,9.000000000000e-01,0.000000000000e+00
      18,2.025000000000e+00,9.000000000000e-01,-6.938893903907e-18
      19,2.025000000000e+00,9.000000000000e-01,1.000000000000e-01
      20,2.000000000000e+00,9.000000000000e-01,1.000000000000e-01
** ... 9902 like lines cut
*ELEMENT, TYPE=F3D8, ELSET=Eall
     1,     1,     2,     3,     4,     5,     6,     7,     8
     2,     5,     6,     7,     8,     9,    10,    11,    12
     3,     9,    10,    11,    12,    13,    14,    15,    16
     4,    13,    14,    15,    16,    17,    18,    19,    20
     5,    17,    18,    19,    20,    21,    22,    23,    24
     6,    21,    22,    23,    24,    25,    26,    27,    28
     7,    25,    26,    27,    28,    29,    30,    31,    32
     8,    29,    30,    31,    32,    33,    34,    35,    36
     9,    33,    34,    35,    36,    37,    38,    39,    40
    10,    37,    38,    39,    40,    41,    42,    43,    44
    11,    41,    42,    43,    44,    45,    46,    47,    48
    12,    45,    46,    47,    48,    49,    50,    51,    52
    13,    49,    50,    51,    52,    53,    54,    55,    56
    14,    53,    54,    55,    56,    57,    58,    59,    60
    15,    57,    58,    59,    60,    61,    62,    63,    64
    16,    61,    62,    63,    64,    65,    66,    67,    68
    17,    65,    66,    67,    68,    69,    70,    71,    72
    18,    69,    70,    71,    72,    73,    74,    75,    76
    19,    73,    74,    75,    76,    77,    78,    79,    80
    20,    77,    78,    79,    80,    81,    82,    83,    84
** ... 4780 like lines cut
*MATERIAL,NAME=AIR
*FLUID CONSTANTS
1.,1.e-20
*SPECIFIC GAS CONSTANT
0.285714286
*CONDUCTIVITY
1.e-10
*SOLID SECTION,ELSET=Eall,MATERIAL=AIR
*INITIAL CONDITIONS,TYPE=FLUID VELOCITY
Nall,1,1.
Nall,2,0.
Nall,3,0.
*INITIAL CONDITIONS,TYPE=PRESSURE
Nall,0.26236390
*INITIAL CONDITIONS,TYPE=TEMPERATURE
Nall,0.91827365
*STEP,INCF=1000
*CFD,COMPRESSIBLE,SCHEME=MODSMART,SIMPLEC,2D,STEADY STATE
1.e30,1.e30,,,
*BOUNDARYF
** BOUNDARYF based on in
3201, S6, 1,, 1.000000
3202, S6, 1,, 1.000000
3203, S6, 1,, 1.000000
3204, S6, 1,, 1.000000
3205, S6, 1,, 1.000000
3206, S6, 1,, 1.000000
3207, S6, 1,, 1.000000
3208, S6, 1,, 1.000000
3209, S6, 1,, 1.000000
3210, S6, 1,, 1.000000
3211, S6, 1,, 1.000000
3212, S6, 1,, 1.000000
3213, S6, 1,, 1.000000
3214, S6, 1,, 1.000000
3215, S6, 1,, 1.000000
3216, S6, 1,, 1.000000
3217, S6, 1,, 1.000000
3218, S6, 1,, 1.000000
3219, S6, 1,, 1.000000
3220, S6, 1,, 1.000000
** ... 20 like lines cut
** BOUNDARYF based on in
3201, S6, 2,, 0.000000
3202, S6, 2,, 0.000000
3203, S6, 2,, 0.000000
3204, S6, 2,, 0.000000
3205, S6, 2,, 0.000000
3206, S6, 2,, 0.000000
3207, S6, 2,, 0.000000
3208, S6, 2,, 0.000000
3209, S6, 2,, 0.000000
3210, S6, 2,, 0.000000
3211, S6, 2,, 0.000000
3212, S6, 2,, 0.000000
3213, S6, 2,, 0.000000
3214, S6, 2,, 0.000000
3215, S6, 2,, 0.000000
3216, S6, 2,, 0.000000
3217, S6, 2,, 0.000000
3218, S6, 2,, 0.000000
3219, S6, 2,, 0.000000
3220, S6, 2,, 0.000000
** ... 20 like lines cut
** BOUNDARYF based on in
3201, S6, 3,, 0.000000
3202, S6, 3,, 0.000000
3203, S6, 3,, 0.000000
3204, S6, 3,, 0.000000
3205, S6, 3,, 0.000000
3206, S6, 3,, 0.000000
3207, S6, 3,, 0.000000
3208, S6, 3,, 0.000000
3209, S6, 3,, 0.000000
3210, S6, 3,, 0.000000
3211, S6, 3,, 0.000000
3212, S6, 3,, 0.000000
3213, S6, 3,, 0.000000
3214, S6, 3,, 0.000000
3215, S6, 3,, 0.000000
3216, S6, 3,, 0.000000
3217, S6, 3,, 0.000000
3218, S6, 3,, 0.000000
3219, S6, 3,, 0.000000
3220, S6, 3,, 0.000000
** ... 20 like lines cut
** BOUNDARYF based on in
3201, S6, 11,, 0.918274
3202, S6, 11,, 0.918274
3203, S6, 11,, 0.918274
3204, S6, 11,, 0.918274
3205, S6, 11,, 0.918274
3206, S6, 11,, 0.918274
3207, S6, 11,, 0.918274
3208, S6, 11,, 0.918274
3209, S6, 11,, 0.918274
3210, S6, 11,, 0.918274
3211, S6, 11,, 0.918274
3212, S6, 11,, 0.918274
3213, S6, 11,, 0.918274
3214, S6, 11,, 0.918274
3215, S6, 11,, 0.918274
3216, S6, 11,, 0.918274
3217, S6, 11,, 0.918274
3218, S6, 11,, 0.918274
3219, S6, 11,, 0.918274
3220, S6, 11,, 0.918274
** ... 20 like lines cut
** BOUNDARYF based on in
3201, S6, 8,, 0.262364
3202, S6, 8,, 0.262364
3203, S6, 8,, 0.262364
3204, S6, 8,, 0.262364
3205, S6, 8,, 0.262364
3206, S6, 8,, 0.262364
3207, S6, 8,, 0.262364
3208, S6, 8,, 0.262364
3209, S6, 8,, 0.262364
3210, S6, 8,, 0.262364
3211, S6, 8,, 0.262364
3212, S6, 8,, 0.262364
3213, S6, 8,, 0.262364
3214, S6, 8,, 0.262364
3215, S6, 8,, 0.262364
3216, S6, 8,, 0.262364
3217, S6, 8,, 0.262364
3218, S6, 8,, 0.262364
3219, S6, 8,, 0.262364
3220, S6, 8,, 0.262364
** ... 20 like lines cut
*MASS FLOW
** MASSFLOW based on sliding
1, M1, 0.000000e+00
1, M3, 0.000000e+00
3161, M1, 0.000000e+00
3161, M3, 0.000000e+00
41, M1, 0.000000e+00
41, M3, 0.000000e+00
1, M5, 0.000000e+00
41, M5, 0.000000e+00
3161, M5, 0.000000e+00
2, M3, 0.000000e+00
3162, M3, 0.000000e+00
42, M3, 0.000000e+00
2, M5, 0.000000e+00
42, M5, 0.000000e+00
3162, M5, 0.000000e+00
3, M3, 0.000000e+00
3163, M3, 0.000000e+00
43, M3, 0.000000e+00
3, M5, 0.000000e+00
43, M5, 0.000000e+00
** ... 9820 like lines cut
*DFLUX
** DFlux based on wall
1, S1, 0.000000e+00
3161, S1, 0.000000e+00
41, S1, 0.000000e+00
40, S2, 0.000000e+00
3200, S2, 0.000000e+00
80, S2, 0.000000e+00
81, S1, 0.000000e+00
120, S2, 0.000000e+00
121, S1, 0.000000e+00
160, S2, 0.000000e+00
161, S1, 0.000000e+00
200, S2, 0.000000e+00
201, S1, 0.000000e+00
240, S2, 0.000000e+00
241, S1, 0.000000e+00
280, S2, 0.000000e+00
281, S1, 0.000000e+00
320, S2, 0.000000e+00
321, S1, 0.000000e+00
360, S2, 0.000000e+00
** ... 220 like lines cut
*MASS FLOW
** DFlux based on wall
1, M1, 0.000000e+00
3161, M1, 0.000000e+00
41, M1, 0.000000e+00
40, M2, 0.000000e+00
3200, M2, 0.000000e+00
80, M2, 0.000000e+00
81, M1, 0.000000e+00
120, M2, 0.000000e+00
121, M1, 0.000000e+00
160, M2, 0.000000e+00
161, M1, 0.000000e+00
200, M2, 0.000000e+00
201, M1, 0.000000e+00
240, M2, 0.000000e+00
241, M1, 0.000000e+00
280, M2, 0.000000e+00
281, M1, 0.000000e+00
320, M2, 0.000000e+00
321, M1, 0.000000e+00
360, M2, 0.000000e+00
** ... 220 like lines cut
*NODE FILE,FREQUENCYF=1000
VF,PSF,TSF,MACH,TTF
*END STEP
