*NODE, NSET=Nall
       1,2.000000000000e+00,1.000000000000e+00,0.000000000000e+00
       2,2.100000000000e+00,1.000000000000e+00,0.000000000000e+00
       3,2.100000000000e+00,1.000000000000e+00,1.000000000000e-01
       4,2.000000000000e+00,1.000000000000e+00,1.000000000000e-01
       5,2.000000000000e+00,9.000000000000e-01,0.000000000000e+00
       6,2.100000000000e+00,9.000000000000e-01,-1.387778780781e-17
       7,2.100000000000e+00,9.000000000000e-01,1.000000000000e-01
       8,2.000000000000e+00,9.000000000000e-01,1.000000000000e-01
       9,2.000000000000e+00,8.000000000000e-01,0.000000000000e+00
      10,2.100000000000e+00,8.000000000000e-01,-6.938893903907e-18
      11,2.100000000000e+00,8.000000000000e-01,1.000000000000e-01
      12,2.000000000000e+00,8.000000000000e-01,1.000000000000e-01
      13,2.000000000000e+00,7.000000000000e-01,0.000000000000e+00
      14,2.100000000000e+00,7.000000000000e-01,6.938893903907e-18
      15,2.100000000000e+00,7.000000000000e-01,1.000000000000e-01
      16,2.000000000000e+00,7.000000000000e-01,1.000000000000e-01
      17,2.000000000000e+00,6.000000000000e-01,0.000000000000e+00
      18,2.100000000000e+00,6.000000000000e-01,0.000000000000e+00
      19,2.100000000000e+00,6.000000000000e-01,1.000000000000e-01
      20,2.000000000000e+00,6.000000000000e-01,1.000000000000e-01
** ... 662 like lines cut
*ELEMENT, TYPE=F3D8, ELSET=Eall
     1,     1,     2,     3,     4,     5,     6,     7,     8
     2,     5,     6,     7,     8,     9,    10,    11,    12
     3,     9,    10,    11,    12,    13,    14,    15,    16
     4,    13,    14,    15,    16,    17,    18,    19,    20
     5,    17,    18,    19,    20,    21,    22,    23,    24
     6,    21,    22,    23,    24,    25,    26,    27,    28
     7,    25,    26,    27,    28,    29,    30,    31,    32
     8,    29,    30,    31,    32,    33,    34,    35,    36
     9,    33,    34,    35,    36,    37,    38,    39,    40
    10,    37,    38,    39,    40,    41,    42,    43,    44
    11,     2,    45,    46,     3,     6,    47,    48,     7
    12,     6,    47,    48,     7,    10,    49,    50,    11
    13,    10,    49,    50,    11,    14,    51,    52,    15
    14,    14,    51,    52,    15,    18,    53,    54,    19
    15,    18,    53,    54,    19,    22,    55,    56,    23
    16,    22,    55,    56,    23,    26,    57,    58,    27
    17,    26,    57,    58,    27,    30,    59,    60,    31
    18,    30,    59,    60,    31,    34,    61,    62,    35
    19,    34,    61,    62,    35,    38,    63,    64,    39
    20,    38,    63,    64,    39,    42,    65,    66,    43
** ... 280 like lines cut
*SURFACE,NAME=Sin
201, S6,
202, S6,
203, S6,
204, S6,
205, S6,
206, S6,
207, S6,
208, S6,
209, S6,
210, S6,
*SURFACE,NAME=Sout
91, S4,
92, S4,
93, S4,
94, S4,
95, S4,
96, S4,
97, S4,
98, S4,
99, S4,
100, S4
*SURFACE,NAME=Ssliding
1, S1, 
1, S3, 
191, S1, 
191, S3, 
11, S1, 
11, S3, 
1, S5, 
11, S5, 
191, S5, 
2, S3, 
192, S3, 
12, S3, 
2, S5, 
12, S5, 
192, S5, 
3, S3, 
193, S3, 
13, S3, 
3, S5, 
13, S5, 
** ... 640 like lines cut
*MATERIAL,NAME=AIR
*FLUID CONSTANTS
1.,0.
*SPECIFIC GAS CONSTANT
0.285714286
*CONDUCTIVITY
0.
*SOLID SECTION,ELSET=Eall,MATERIAL=AIR
*INITIAL CONDITIONS,TYPE=FLUID VELOCITY
Nall,1,1.
Nall,2,0.
Nall,3,0.
*INITIAL CONDITIONS,TYPE=PRESSURE
 Nall,   1.58173388402980     
*INITIAL CONDITIONS,TYPE=TEMPERATURE
 Nall,   5.53606859410431     
*STEP,INCF=32000
*CFD,COMPRESSIBLE,STEADY STATE,SCHEME=MODSMART,2D
1.e10,1.e10
*CONTROLS,PARAMETERS=CFD
20,0,0,4
*BOUNDARYF
Sin,S,1,,1.
Sin,S,2,3,0.
 Sin,S,11,,   5.53606859410431     
 Sout,S,8,,   1.58173388402980     
*MASS FLOW
Ssliding,M,0.
*DFLUX
Ssliding,S,0.
*NODE FILE,FREQUENCYF=32000
VF,PSF,TSF,MACH
*END STEP
