**
**   Structure: fluid flow between two plates.
**   Test objective: stationary compressible Couette
**                   with fixed wall temperature.
**                   velocity:linear between 0. and 1.
**                   temperature: maximum of 1.125;
**                   viscous mass scaling
**
*NODE, NSET=Nall
       1,0.000000000000e+00,0.000000000000e+00,1.000000000000e-01
       2,0.000000000000e+00,0.000000000000e+00,0.000000000000e+00
       3,0.000000000000e+00,4.671966446397e-04,0.000000000000e+00
       4,0.000000000000e+00,4.671966446397e-04,1.000000000000e-01
       5,1.000000000000e-01,0.000000000000e+00,1.000000000000e-01
       6,1.000000000000e-01,0.000000000000e+00,0.000000000000e+00
       7,1.000000000000e-01,4.671966446397e-04,0.000000000000e+00
       8,1.000000000000e-01,4.671966446397e-04,1.000000000000e-01
       9,0.000000000000e+00,9.568213683516e-04,0.000000000000e+00
      10,0.000000000000e+00,9.568213683516e-04,1.000000000000e-01
      11,1.000000000000e-01,9.568213683516e-04,0.000000000000e+00
      12,1.000000000000e-01,9.568213683516e-04,1.000000000000e-01
      13,0.000000000000e+00,1.469950845672e-03,0.000000000000e+00
      14,0.000000000000e+00,1.469950845672e-03,1.000000000000e-01
      15,1.000000000000e-01,1.469950845672e-03,0.000000000000e+00
      16,1.000000000000e-01,1.469950845672e-03,1.000000000000e-01
      17,0.000000000000e+00,2.007713437601e-03,0.000000000000e+00
      18,0.000000000000e+00,2.007713437601e-03,1.000000000000e-01
      19,1.000000000000e-01,2.007713437601e-03,0.000000000000e+00
      20,1.000000000000e-01,2.007713437601e-03,1.000000000000e-01
** ... 380 like lines cut
*ELEMENT, TYPE=F3D8, ELSET=Eall
     1,     1,     2,     3,     4,     5,     6,     7,     8
     2,     4,     3,     9,    10,     8,     7,    11,    12
     3,    10,     9,    13,    14,    12,    11,    15,    16
     4,    14,    13,    17,    18,    16,    15,    19,    20
     5,    18,    17,    21,    22,    20,    19,    23,    24
     6,    22,    21,    25,    26,    24,    23,    27,    28
     7,    26,    25,    29,    30,    28,    27,    31,    32
     8,    30,    29,    33,    34,    32,    31,    35,    36
     9,    34,    33,    37,    38,    36,    35,    39,    40
    10,    38,    37,    41,    42,    40,    39,    43,    44
    11,    42,    41,    45,    46,    44,    43,    47,    48
    12,    46,    45,    49,    50,    48,    47,    51,    52
    13,    50,    49,    53,    54,    52,    51,    55,    56
    14,    54,    53,    57,    58,    56,    55,    59,    60
    15,    58,    57,    61,    62,    60,    59,    63,    64
    16,    62,    61,    65,    66,    64,    63,    67,    68
    17,    66,    65,    69,    70,    68,    67,    71,    72
    18,    70,    69,    73,    74,    72,    71,    75,    76
    19,    74,    73,    77,    78,    76,    75,    79,    80
    20,    78,    77,    81,    82,    80,    79,    83,    84
** ... 79 like lines cut
** Surfaces based on mast
*SURFACE, NAME=Smast
1, S1
2, S1
3, S1
4, S1
5, S1
6, S1
7, S1
8, S1
9, S1
10, S1
11, S1
12, S1
13, S1
14, S1
15, S1
16, S1
17, S1
18, S1
19, S1
20, S1
** ... 79 like lines cut
** Surfaces based on slav
*SURFACE, NAME=Sslav
1, S2
2, S2
3, S2
4, S2
5, S2
6, S2
7, S2
8, S2
9, S2
10, S2
11, S2
12, S2
13, S2
14, S2
15, S2
16, S2
17, S2
18, S2
19, S2
20, S2
** ... 79 like lines cut
** Surfaces based on sliding
*SURFACE, NAME=Ssliding
1, S6
1, S4
2, S4
2, S6
3, S4
3, S6
4, S4
4, S6
5, S4
5, S6
6, S4
6, S6
7, S4
7, S6
8, S4
8, S6
9, S4
9, S6
10, S4
10, S6
** ... 178 like lines cut
*TIE,FLUIDPERIODIC,NAME=T1
Sslav,Smast
*CYCLIC SYMMETRY MODEL,TIE=T1
0.1,0.,0.
*SURFACE,NAME=SOLIDSURFACE
1,S3
99,S5
*MATERIAL,NAME=AIR
*FLUID CONSTANTS
1.,1.
*SPECIFIC GAS CONSTANT
0.285714286
*CONDUCTIVITY
1.
***MATERIAL,NAME=WATER
***DENSITY
**1.
***FLUID CONSTANTS
**1.,1.
***CONDUCTIVITY
**1.
*SOLID SECTION,ELSET=Eall,MATERIAL=AIR
*INITIAL CONDITIONS,TYPE=PRESSURE
Nall,1.
*INITIAL CONDITIONS,TYPE=TEMPERATURE
Nall,1.
*INITIAL CONDITIONS,TYPE=FLUID VELOCITY
Nall,1,1.
Nall,2,0.
Nall,3,0.
*STEP,INCF=10000
*CFD,2D,COMPRESSIBLE,STEADYSTATE
1.e30,1.E30
*BOUNDARYF
1,S3,1,1,1.
1,S3,2,3,0.
1,S3,11,11,1.
99,S5,1,3,0.
99,S5,11,11,1.
*MASSFLOW
Ssliding,M,0.
*NODE FILE,FREQUENCYF=10000,NSET=Nall
VF,TSF
*END STEP
