*NODE, NSET=Nall
       1,0.000000000000e+00,-2.500000000000e+00,-5.551115123126e-17
       2,0.000000000000e+00,-2.249546760037e+00,-5.551115123126e-17
       3,0.000000000000e+00,-2.249546760037e+00,1.000000000000e+00
       4,0.000000000000e+00,-2.500000000000e+00,1.000000000000e+00
       5,1.250000000000e-01,-2.500000000000e+00,-5.551115123126e-17
       6,1.118047820666e-01,-2.249498457744e+00,-1.110223024625e-16
       7,1.118047820666e-01,-2.249498457744e+00,1.000000000000e+00
       8,1.250000000000e-01,-2.500000000000e+00,1.000000000000e+00
       9,2.500000000000e-01,-2.500000000000e+00,-5.551115123126e-17
      10,2.236057772723e-01,-2.249353685742e+00,-1.110223024625e-16
      11,2.236057772723e-01,-2.249353685742e+00,1.000000000000e+00
      12,2.500000000000e-01,-2.500000000000e+00,1.000000000000e+00
      13,3.750000000000e-01,-2.500000000000e+00,-5.551115123126e-17
      14,3.353992018964e-01,-2.249112667199e+00,5.551115123126e-17
      15,3.353992018964e-01,-2.249112667199e+00,1.000000000000e+00
      16,3.750000000000e-01,-2.500000000000e+00,1.000000000000e+00
      17,5.000000000000e-01,-2.500000000000e+00,-5.551115123126e-17
      18,4.471812838184e-01,-2.248775773686e+00,-1.110223024625e-16
      19,4.471812838184e-01,-2.248775773686e+00,1.000000000000e+00
      20,5.000000000000e-01,-2.500000000000e+00,1.000000000000e+00
** ... 7356 like lines cut
*ELEMENT, TYPE=F3D8, ELSET=Eall
     1,     1,     2,     3,     4,     5,     6,     7,     8
     2,     5,     6,     7,     8,     9,    10,    11,    12
     3,     9,    10,    11,    12,    13,    14,    15,    16
     4,    13,    14,    15,    16,    17,    18,    19,    20
     5,    17,    18,    19,    20,    21,    22,    23,    24
     6,    21,    22,    23,    24,    25,    26,    27,    28
     7,    25,    26,    27,    28,    29,    30,    31,    32
     8,    29,    30,    31,    32,    33,    34,    35,    36
     9,    33,    34,    35,    36,    37,    38,    39,    40
    10,    37,    38,    39,    40,    41,    42,    43,    44
    11,    41,    42,    43,    44,    45,    46,    47,    48
    12,    45,    46,    47,    48,    49,    50,    51,    52
    13,    49,    50,    51,    52,    53,    54,    55,    56
    14,    53,    54,    55,    56,    57,    58,    59,    60
    15,    57,    58,    59,    60,    61,    62,    63,    64
    16,    61,    62,    63,    64,    65,    66,    67,    68
    17,    65,    66,    67,    68,    69,    70,    71,    72
    18,    69,    70,    71,    72,    73,    74,    75,    76
    19,    73,    74,    75,    76,    77,    78,    79,    80
    20,    77,    78,    79,    80,    81,    82,    83,    84
** ... 3500 like lines cut
** Surfaces based on in
*SURFACE, NAME=Sin
2001, S6
3441, S1
2002, S6
2003, S6
2004, S6
2005, S6
2006, S6
2007, S6
2008, S6
2009, S6
2010, S6
2011, S6
2012, S6
2013, S6
2014, S6
2015, S6
2016, S6
2017, S6
2018, S6
2019, S6
** ... 28 like lines cut
** Surfaces based on out
*SURFACE, NAME=Sout
401, S6
3281, S1
402, S6
403, S6
404, S6
405, S6
406, S6
407, S6
408, S6
409, S6
410, S6
411, S6
412, S6
413, S6
414, S6
415, S6
416, S6
417, S6
418, S6
419, S6
** ... 28 like lines cut
** Surfaces based on wall
*SURFACE, NAME=Swall
381, S4
3200, S4
382, S4
383, S4
384, S4
385, S4
386, S4
387, S4
388, S4
389, S4
390, S4
391, S4
392, S4
393, S4
394, S4
395, S4
396, S4
397, S4
398, S4
399, S4
** ... 140 like lines cut
** Surfaces based on farfield
*SURFACE, NAME=Sfarfield
3204, S5
3360, S5
3208, S5
3212, S5
3216, S5
3220, S5
3224, S5
3228, S5
3232, S5
3236, S5
3240, S5
3244, S5
3248, S5
3252, S5
3256, S5
3260, S5
3264, S5
3268, S5
3272, S5
3276, S5
** ... 60 like lines cut
** Surfaces based on sliding
*SURFACE, NAME=Ssliding
1, S3
2820, S3
3357, S4
3201, S4
21, S3
2840, S3
1, S5
2820, S5
21, S5
2840, S5
3357, S6
3201, S6
2, S3
3353, S4
22, S3
2, S5
22, S5
3353, S6
3, S3
3349, S4
** ... 7020 like lines cut
*MATERIAL,NAME=AIR
*CONDUCTIVITY
0.
*FLUID CONSTANTS
3.5,1.d-20,0.079365079
*SPECIFIC GAS CONSTANT
1.
*SOLID SECTION,ELSET=Eall,MATERIAL=AIR
*PHYSICAL CONSTANTS,ABSOLUTE ZERO=0.
*INITIAL CONDITIONS,TYPE=FLUID VELOCITY
Nall,1,1.
Nall,2,0.d0
Nall,3,0.d0
*INITIAL CONDITIONS,TYPE=PRESSURE
Nall,0.079365079
*INITIAL CONDITIONS,TYPE=TEMPERATURE
Nall,0.079365079
*VALUES AT INFINITY
0.079365079,1.,0.079365079,1.,1.
**
*STEP,INCF=7000
*CFD,COMPRESSIBLE,STEADYSTATE,2D
1.E10,1.E10
*BOUNDARYf
Sin,S,11,,0.079365079
Sin,S,1,,1.
Sin,S,2,3,0.
Sin,S,8,,0.079365079
*MASS FLOW
Swall,M,0.
Sfarfield,M,0.
Ssliding,M,0.
*NODE FILE,FREQUENCYF=7000
VF,PSF,TSF,TTF,MACH,CP
*END STEP
