*NODE, NSET=Nall
       1,0.000000000000e+00,-4.000000000000e+00,0.000000000000e+00
       2,0.000000000000e+00,-3.561706830064e+00,0.000000000000e+00
       3,0.000000000000e+00,-3.561706830064e+00,1.000000000000e+00
       4,0.000000000000e+00,-4.000000000000e+00,1.000000000000e+00
       5,2.000000000000e-01,-4.000000000000e+00,0.000000000000e+00
       6,1.774128630180e-01,-3.561658557471e+00,0.000000000000e+00
       7,1.774128630180e-01,-3.561658557471e+00,1.000000000000e+00
       8,2.000000000000e-01,-4.000000000000e+00,1.000000000000e+00
       9,4.000000000000e-01,-4.000000000000e+00,0.000000000000e+00
      10,3.548219356898e-01,-3.561513814126e+00,0.000000000000e+00
      11,3.548219356898e-01,-3.561513814126e+00,1.000000000000e+00
      12,4.000000000000e-01,-4.000000000000e+00,1.000000000000e+00
      13,6.000000000000e-01,-4.000000000000e+00,0.000000000000e+00
      14,5.322234335136e-01,-3.561272823211e+00,0.000000000000e+00
      15,5.322234335136e-01,-3.561272823211e+00,1.000000000000e+00
      16,6.000000000000e-01,-4.000000000000e+00,1.000000000000e+00
      17,8.000000000000e-01,-4.000000000000e+00,0.000000000000e+00
      18,7.096135836675e-01,-3.560935956318e+00,0.000000000000e+00
      19,7.096135836675e-01,-3.560935956318e+00,1.000000000000e+00
      20,8.000000000000e-01,-4.000000000000e+00,1.000000000000e+00
** ... 22936 like lines cut
*ELEMENT, TYPE=F3D8, ELSET=Eall
     1,     1,     2,     3,     4,     5,     6,     7,     8
     2,     5,     6,     7,     8,     9,    10,    11,    12
     3,     9,    10,    11,    12,    13,    14,    15,    16
     4,    13,    14,    15,    16,    17,    18,    19,    20
     5,    17,    18,    19,    20,    21,    22,    23,    24
     6,    21,    22,    23,    24,    25,    26,    27,    28
     7,    25,    26,    27,    28,    29,    30,    31,    32
     8,    29,    30,    31,    32,    33,    34,    35,    36
     9,    33,    34,    35,    36,    37,    38,    39,    40
    10,    37,    38,    39,    40,    41,    42,    43,    44
    11,    41,    42,    43,    44,    45,    46,    47,    48
    12,    45,    46,    47,    48,    49,    50,    51,    52
    13,    49,    50,    51,    52,    53,    54,    55,    56
    14,    53,    54,    55,    56,    57,    58,    59,    60
    15,    57,    58,    59,    60,    61,    62,    63,    64
    16,    61,    62,    63,    64,    65,    66,    67,    68
    17,    65,    66,    67,    68,    69,    70,    71,    72
    18,    69,    70,    71,    72,    73,    74,    75,    76
    19,    73,    74,    75,    76,    77,    78,    79,    80
    20,    77,    78,    79,    80,    81,    82,    83,    84
** ... 9580 like lines cut
** Surfaces based on wall
*SURFACE, NAME=SOLIDSURFACE
381, S4
3200, S4
382, S4
383, S4
384, S4
385, S4
386, S4
387, S4
388, S4
389, S4
390, S4
391, S4
392, S4
393, S4
394, S4
395, S4
396, S4
397, S4
398, S4
399, S4
** ... 140 like lines cut
** Surfaces based on slide
*SURFACE, NAME=Sslide
1, S3
2820, S3
1, S6
2820, S6
21, S3
2840, S3
1, S5
2820, S5
21, S5
2840, S5
2, S3
2, S6
22, S3
2, S5
22, S5
3, S3
3, S6
23, S3
3, S5
23, S5
** ... 19580 like lines cut
** Surfaces based on out
*SURFACE, NAME=Sout
6401, S6
6402, S6
6403, S6
6404, S6
6405, S6
6406, S6
6407, S6
6408, S6
6409, S6
6410, S6
6411, S6
6412, S6
6413, S6
6414, S6
6415, S6
6416, S6
6417, S6
6418, S6
6419, S6
6420, S6
** ... 20 like lines cut
** Surfaces based on in
*SURFACE, NAME=Sin
8040, S5
8800, S5
8840, S5
9600, S5
8080, S5
8120, S5
8160, S5
8200, S5
8240, S5
8280, S5
8320, S5
8360, S5
8400, S5
8440, S5
8480, S5
8520, S5
8560, S5
8600, S5
8640, S5
8680, S5
** ... 20 like lines cut
*MATERIAL,NAME=WATER
*DENSITY
1.
*FLUID CONSTANTS
,1.E-2,293.
*SOLID SECTION,ELSET=Eall,MATERIAL=WATER
*INITIAL CONDITIONS,TYPE=FLUID VELOCITY
Nall,1,1.
Nall,2,0.
Nall,3,0.
*INITIAL CONDITIONS,TYPE=PRESSURE
Nall,1.
*AMPLITUDE,NAME=A1
0.,100.,1.E10,100.
*STEP,INCF=3000
*CFD,STEADY STATE,2D
1.e10,1.e10,,,
*BOUNDARYF
Sin,S,1,1,1.
Sin,S,2,3,0.
Sout,S,8,8,1.
SOLIDSURFACE,S,1,3,0.
*MASS FLOW
Sslide,M,0.
*NODE FILE,FREQUENCYF=1000
VF,PSF
*EL FILE
SVF
*END STEP
