*NODE, NSET=Nall
       1,5.000000000000e-01,5.000000000000e-01,0.0
       2,5.000000000000e-01,4.875000000000e-01,0.0
       3,5.000000000000e-01,4.875000000000e-01,1.0
       4,5.000000000000e-01,5.000000000000e-01,1.0
       5,4.875000000000e-01,5.000000000000e-01,0.0
       6,4.875000000000e-01,4.875000000000e-01,0.0
       7,4.875000000000e-01,4.875000000000e-01,1.0
       8,4.875000000000e-01,5.000000000000e-01,1.0
       9,4.750000000000e-01,5.000000000000e-01,0.0
      10,4.750000000000e-01,4.875000000000e-01,0.0
      11,4.750000000000e-01,4.875000000000e-01,1.0
      12,4.750000000000e-01,5.000000000000e-01,1.0
      13,4.625000000000e-01,5.000000000000e-01,0.0
      14,4.625000000000e-01,4.875000000000e-01,0.0
      15,4.625000000000e-01,4.875000000000e-01,1.0
      16,4.625000000000e-01,5.000000000000e-01,1.0
      17,4.500000000000e-01,5.000000000000e-01,0.0
      18,4.500000000000e-01,4.875000000000e-01,0.0
      19,4.500000000000e-01,4.875000000000e-01,1.0
      20,4.500000000000e-01,5.000000000000e-01,1.0
** ... 13102 like lines cut
*ELEMENT, TYPE=F3D8, ELSET=Eall
     1,     1,     2,     3,     4,     5,     6,     7,     8
     2,     5,     6,     7,     8,     9,    10,    11,    12
     3,     9,    10,    11,    12,    13,    14,    15,    16
     4,    13,    14,    15,    16,    17,    18,    19,    20
     5,    17,    18,    19,    20,    21,    22,    23,    24
     6,    21,    22,    23,    24,    25,    26,    27,    28
     7,    25,    26,    27,    28,    29,    30,    31,    32
     8,    29,    30,    31,    32,    33,    34,    35,    36
     9,    33,    34,    35,    36,    37,    38,    39,    40
    10,    37,    38,    39,    40,    41,    42,    43,    44
    11,    41,    42,    43,    44,    45,    46,    47,    48
    12,    45,    46,    47,    48,    49,    50,    51,    52
    13,    49,    50,    51,    52,    53,    54,    55,    56
    14,    53,    54,    55,    56,    57,    58,    59,    60
    15,    57,    58,    59,    60,    61,    62,    63,    64
    16,    61,    62,    63,    64,    65,    66,    67,    68
    17,    65,    66,    67,    68,    69,    70,    71,    72
    18,    69,    70,    71,    72,    73,    74,    75,    76
    19,    73,    74,    75,    76,    77,    78,    79,    80
    20,    77,    78,    79,    80,    81,    82,    83,    84
** ... 6380 like lines cut
** Names based on in
*NSET,NSET=Nin 
3363, 
3364, 
3365, 
3366, 
3523, 
3524, 
3603, 
3604, 
3683, 
3684, 
3763, 
3764, 
3843, 
3844, 
3923, 
3924, 
4003, 
4004, 
4083, 
4084, 
** ... 138 like lines cut
** Names based on wall
*NSET,NSET=Nwall 
161, 
162, 
163, 
164, 
245, 
246, 
327, 
328, 
409, 
410, 
491, 
492, 
573, 
574, 
655, 
656, 
737, 
738, 
819, 
820, 
** ... 462 like lines cut
** Surfaces based on solidsurf
*SURFACE, NAME=SOLIDSURFACE
40, S2
4800, S2
80, S2
120, S2
160, S2
200, S2
240, S2
280, S2
320, S2
360, S2
400, S2
440, S2
480, S2
520, S2
560, S2
600, S2
640, S2
680, S2
720, S2
760, S2
** ... 300 like lines cut
*MATERIAL,NAME=WATER
*DENSITY
1.
*FLUID CONSTANTS
,.25E-2,293.
*SOLID SECTION,ELSET=Eall,MATERIAL=WATER
*INITIAL CONDITIONS,TYPE=FLUID VELOCITY
Nall,1,0.
Nall,2,0.
Nall,3,0.
*INITIAL CONDITIONS,TYPE=PRESSURE
Nall,1.
**
*STEP,INCF=5000
*CFD,STEADY STATE,2D
*BOUNDARYF
** BOUNDARYF based on fixz
1, S3, 3,, 0.000000
1640, S3, 3,, 0.000000
4761, S3, 3,, 0.000000
6400, S3, 3,, 0.000000
41, S3, 3,, 0.000000
1680, S3, 3,, 0.000000
1, S5, 3,, 0.000000
1640, S5, 3,, 0.000000
41, S5, 3,, 0.000000
1680, S5, 3,, 0.000000
4761, S5, 3,, 0.000000
6400, S5, 3,, 0.000000
2, S3, 3,, 0.000000
4762, S3, 3,, 0.000000
42, S3, 3,, 0.000000
2, S5, 3,, 0.000000
42, S5, 3,, 0.000000
4762, S5, 3,, 0.000000
3, S3, 3,, 0.000000
4763, S3, 3,, 0.000000
** ... 3340 like lines cut
**1600, S3, 3,, 0.000000
**1600, S5, 3,, 0.000000
1601, S3, 3,, 0.000000
6361, S3, 3,, 0.000000
1641, S3, 3,, 0.000000
1601, S5, 3,, 0.000000
1641, S5, 3,, 0.000000
6361, S5, 3,, 0.000000
1602, S3, 3,, 0.000000
6362, S3, 3,, 0.000000
1642, S3, 3,, 0.000000
1602, S5, 3,, 0.000000
1642, S5, 3,, 0.000000
6362, S5, 3,, 0.000000
1603, S3, 3,, 0.000000
6363, S3, 3,, 0.000000
1643, S3, 3,, 0.000000
1603, S5, 3,, 0.000000
1643, S5, 3,, 0.000000
6363, S5, 3,, 0.000000
1604, S3, 3,, 0.000000
6364, S3, 3,, 0.000000
** ... 9418 like lines cut
** BOUNDARYF based on in
1601, S1, 3,, 0.000000
6361, S1, 3,, 0.000000
1641, S1, 3,, 0.000000
1681, S1, 3,, 0.000000
1721, S1, 3,, 0.000000
1761, S1, 3,, 0.000000
1801, S1, 3,, 0.000000
1841, S1, 3,, 0.000000
1881, S1, 3,, 0.000000
1921, S1, 3,, 0.000000
1961, S1, 3,, 0.000000
2001, S1, 3,, 0.000000
2041, S1, 3,, 0.000000
2081, S1, 3,, 0.000000
2121, S1, 3,, 0.000000
2161, S1, 3,, 0.000000
2201, S1, 3,, 0.000000
2241, S1, 3,, 0.000000
2281, S1, 3,, 0.000000
2321, S1, 3,, 0.000000
** ... 60 like lines cut
** BOUNDARYF based on in
1601, S1, 2,, 1.000000
6361, S1, 2,, 1.000000
1641, S1, 2,, 1.000000
1681, S1, 2,, 1.000000
1721, S1, 2,, 1.000000
1761, S1, 2,, 1.000000
1801, S1, 2,, 1.000000
1841, S1, 2,, 1.000000
1881, S1, 2,, 1.000000
1921, S1, 2,, 1.000000
1961, S1, 2,, 1.000000
2001, S1, 2,, 1.000000
2041, S1, 2,, 1.000000
2081, S1, 2,, 1.000000
2121, S1, 2,, 1.000000
2161, S1, 2,, 1.000000
2201, S1, 2,, 1.000000
2241, S1, 2,, 1.000000
2281, S1, 2,, 1.000000
2321, S1, 2,, 1.000000
** ... 60 like lines cut
** BOUNDARYF based on in
1601, S1, 1,, 0.000000
6361, S1, 1,, 0.000000
1641, S1, 1,, 0.000000
1681, S1, 1,, 0.000000
1721, S1, 1,, 0.000000
1761, S1, 1,, 0.000000
1801, S1, 1,, 0.000000
1841, S1, 1,, 0.000000
1881, S1, 1,, 0.000000
1921, S1, 1,, 0.000000
1961, S1, 1,, 0.000000
2001, S1, 1,, 0.000000
2041, S1, 1,, 0.000000
2081, S1, 1,, 0.000000
2121, S1, 1,, 0.000000
2161, S1, 1,, 0.000000
2201, S1, 1,, 0.000000
2241, S1, 1,, 0.000000
2281, S1, 1,, 0.000000
2321, S1, 1,, 0.000000
** ... 60 like lines cut
** BOUNDARYF based on wall
40, S2, 3,, 0.000000
4800, S2, 3,, 0.000000
80, S2, 3,, 0.000000
120, S2, 3,, 0.000000
160, S2, 3,, 0.000000
200, S2, 3,, 0.000000
240, S2, 3,, 0.000000
280, S2, 3,, 0.000000
320, S2, 3,, 0.000000
360, S2, 3,, 0.000000
400, S2, 3,, 0.000000
440, S2, 3,, 0.000000
480, S2, 3,, 0.000000
520, S2, 3,, 0.000000
560, S2, 3,, 0.000000
600, S2, 3,, 0.000000
640, S2, 3,, 0.000000
680, S2, 3,, 0.000000
720, S2, 3,, 0.000000
760, S2, 3,, 0.000000
** ... 220 like lines cut
** BOUNDARYF based on wall
40, S2, 2,, 0.000000
4800, S2, 2,, 0.000000
80, S2, 2,, 0.000000
120, S2, 2,, 0.000000
160, S2, 2,, 0.000000
200, S2, 2,, 0.000000
240, S2, 2,, 0.000000
280, S2, 2,, 0.000000
320, S2, 2,, 0.000000
360, S2, 2,, 0.000000
400, S2, 2,, 0.000000
440, S2, 2,, 0.000000
480, S2, 2,, 0.000000
520, S2, 2,, 0.000000
560, S2, 2,, 0.000000
600, S2, 2,, 0.000000
640, S2, 2,, 0.000000
680, S2, 2,, 0.000000
720, S2, 2,, 0.000000
760, S2, 2,, 0.000000
** ... 220 like lines cut
** BOUNDARYF based on wall
40, S2, 1,, 0.000000
4800, S2, 1,, 0.000000
80, S2, 1,, 0.000000
120, S2, 1,, 0.000000
160, S2, 1,, 0.000000
200, S2, 1,, 0.000000
240, S2, 1,, 0.000000
280, S2, 1,, 0.000000
320, S2, 1,, 0.000000
360, S2, 1,, 0.000000
400, S2, 1,, 0.000000
440, S2, 1,, 0.000000
480, S2, 1,, 0.000000
520, S2, 1,, 0.000000
560, S2, 1,, 0.000000
600, S2, 1,, 0.000000
640, S2, 1,, 0.000000
680, S2, 1,, 0.000000
720, S2, 1,, 0.000000
760, S2, 1,, 0.000000
** ... 220 like lines cut
*BOUNDARYF
1600, S3, 8,8, 1.000000
*MASS FLOW
1600,M3,0.
1600,M5,0.
*NODE FILE,FREQUENCYF=5000
VF,PSF
*END STEP
