*NODE,NSET=Nall
1,0.00000,0.00000,0.
2376,0.00000,0.00000,1.
2,0.02439,0.00000,0.
2377,0.02439,0.00000,1.
3,0.01856,0.01892,0.
2378,0.01856,0.01892,1.
4,0.00000,0.02439,0.
2379,0.00000,0.02439,1.
5,0.04878,0.00000,0.
2380,0.04878,0.00000,1.
6,0.03769,0.01594,0.
2381,0.03769,0.01594,1.
7,0.03659,0.03659,0.
2382,0.03659,0.03659,1.
8,0.01263,0.03659,0.
2383,0.01263,0.03659,1.
9,0.00000,0.04878,0.
2384,0.00000,0.04878,1.
10,0.07317,0.00000,0.
2385,0.07317,0.00000,1.
** ... 4730 like lines cut
*ELEMENT,TYPE=F3D6,ELSET=Eall
1,1543,1626,1624,3918,4001,3999
2,2375,2374,2372,4750,4749,4747
3,1698,1613,1696,4073,3988,4071
4,1,2,3,2376,2377,2378
5,1622,1625,1621,3997,4000,3996
6,2366,2372,2370,4741,4747,4745
7,1610,1696,1611,3985,4071,3986
8,7,3,6,2382,2378,2381
9,1464,1387,1388,3839,3762,3763
10,2365,2366,2370,4740,4741,4745
11,1528,1610,1611,3903,3985,3986
12,11,7,6,2386,2382,2381
13,1710,1709,1625,4085,4084,4000
14,2373,2375,2372,4748,4750,4747
15,1779,1698,1696,4154,4073,4071
16,4,1,3,2379,2376,2378
17,1318,1390,1389,3693,3765,3764
18,2371,2367,2365,4746,4742,4740
19,1531,1456,1528,3906,3831,3903
20,5,10,11,2380,2385,2386
** ... 4564 like lines cut
*SURFACE, NAME=SOLIDSURFACE
4, S3
16, S3
3419, S3
1057, S3
20, S3
24, S3
1081, S3
1573, S3
2032, S3
1609, S3
1073, S3
1113, S3
48, S3
76, S3
1105, S3
1145, S3
56, S3
474, S3
64, S3
701, S3
** ... 144 like lines cut
*MATERIAL,NAME=WATER
*DENSITY
1.
*FLUID CONSTANTS
,.25E-2,293.
*SOLID SECTION,ELSET=Eall,MATERIAL=WATER
*INITIAL CONDITIONS,TYPE=FLUID VELOCITY
Nall,1,0.
Nall,2,0.
Nall,3,0.
*INITIAL CONDITIONS,TYPE=PRESSURE
Nall,0.
**
*STEP,INCF=25000
*CFD,STEADY STATE,2D
1.,1.,,,0.001
*BOUNDARYF
** BOUNDARYF based on fixz
4, S1, 3,, 0.000000
16, S1, 3,, 0.000000
3420, S1, 3,, 0.000000
3419, S1, 3,, 0.000000
1058, S1, 3,, 0.000000
8, S1, 3,, 0.000000
1051, S1, 3,, 0.000000
1057, S1, 3,, 0.000000
28, S1, 3,, 0.000000
20, S1, 3,, 0.000000
12, S1, 3,, 0.000000
1576, S1, 3,, 0.000000
36, S1, 3,, 0.000000
3427, S1, 3,, 0.000000
2010, S1, 3,, 0.000000
1574, S1, 3,, 0.000000
24, S1, 3,, 0.000000
1082, S1, 3,, 0.000000
1081, S1, 3,, 0.000000
1052, S1, 3,, 0.000000
** ... 9148 like lines cut
** BOUNDARYF based on wall
4, S3, 3,, 0.000000
16, S3, 3,, 0.000000
3419, S3, 3,, 0.000000
1057, S3, 3,, 0.000000
20, S3, 3,, 0.000000
24, S3, 3,, 0.000000
1081, S3, 3,, 0.000000
1573, S3, 3,, 0.000000
2032, S3, 3,, 0.000000
1609, S3, 3,, 0.000000
1073, S3, 3,, 0.000000
1113, S3, 3,, 0.000000
48, S3, 3,, 0.000000
76, S3, 3,, 0.000000
1105, S3, 3,, 0.000000
1145, S3, 3,, 0.000000
56, S3, 3,, 0.000000
474, S3, 3,, 0.000000
64, S3, 3,, 0.000000
701, S3, 3,, 0.000000
** ... 103 like lines cut
** BOUNDARYF based on wall
4, S3, 2,, 0.000000
16, S3, 2,, 0.000000
3419, S3, 2,, 0.000000
1057, S3, 2,, 0.000000
20, S3, 2,, 0.000000
24, S3, 2,, 0.000000
1081, S3, 2,, 0.000000
1573, S3, 2,, 0.000000
2032, S3, 2,, 0.000000
1609, S3, 2,, 0.000000
1073, S3, 2,, 0.000000
1113, S3, 2,, 0.000000
48, S3, 2,, 0.000000
76, S3, 2,, 0.000000
1105, S3, 2,, 0.000000
1145, S3, 2,, 0.000000
56, S3, 2,, 0.000000
474, S3, 2,, 0.000000
64, S3, 2,, 0.000000
701, S3, 2,, 0.000000
** ... 103 like lines cut
** BOUNDARYF based on wall
4, S3, 1,, 0.000000
16, S3, 1,, 0.000000
3419, S3, 1,, 0.000000
1057, S3, 1,, 0.000000
20, S3, 1,, 0.000000
24, S3, 1,, 0.000000
1081, S3, 1,, 0.000000
1573, S3, 1,, 0.000000
2032, S3, 1,, 0.000000
1609, S3, 1,, 0.000000
1073, S3, 1,, 0.000000
1113, S3, 1,, 0.000000
48, S3, 1,, 0.000000
76, S3, 1,, 0.000000
1105, S3, 1,, 0.000000
1145, S3, 1,, 0.000000
56, S3, 1,, 0.000000
474, S3, 1,, 0.000000
64, S3, 1,, 0.000000
701, S3, 1,, 0.000000
** ... 103 like lines cut
** BOUNDARYF based on in
807, S3, 1,, 0.000000
85, S3, 1,, 0.000000
13, S3, 1,, 0.000000
893, S3, 1,, 0.000000
1543, S3, 1,, 0.000000
1511, S3, 1,, 0.000000
1973, S3, 1,, 0.000000
2399, S3, 1,, 0.000000
61, S3, 1,, 0.000000
1154, S3, 1,, 0.000000
2731, S3, 1,, 0.000000
2439, S3, 1,, 0.000000
2071, S3, 1,, 0.000000
1625, S3, 1,, 0.000000
3819, S3, 1,, 0.000000
353, S3, 1,, 0.000000
289, S3, 1,, 0.000000
121, S3, 1,, 0.000000
355, S3, 1,, 0.000000
709, S3, 1,, 0.000000
** ... 21 like lines cut
** BOUNDARYF based on in
807, S3, 2,, 1.000000
85, S3, 2,, 1.000000
13, S3, 2,, 1.000000
893, S3, 2,, 1.000000
1543, S3, 2,, 1.000000
1511, S3, 2,, 1.000000
1973, S3, 2,, 1.000000
2399, S3, 2,, 1.000000
61, S3, 2,, 1.000000
1154, S3, 2,, 1.000000
2731, S3, 2,, 1.000000
2439, S3, 2,, 1.000000
2071, S3, 2,, 1.000000
1625, S3, 2,, 1.000000
3819, S3, 2,, 1.000000
353, S3, 2,, 1.000000
289, S3, 2,, 1.000000
121, S3, 2,, 1.000000
355, S3, 2,, 1.000000
709, S3, 2,, 1.000000
** ... 21 like lines cut
** BOUNDARYF based on in
807, S3, 3,, 0.000000
85, S3, 3,, 0.000000
13, S3, 3,, 0.000000
893, S3, 3,, 0.000000
1543, S3, 3,, 0.000000
1511, S3, 3,, 0.000000
1973, S3, 3,, 0.000000
2399, S3, 3,, 0.000000
61, S3, 3,, 0.000000
1154, S3, 3,, 0.000000
2731, S3, 3,, 0.000000
2439, S3, 3,, 0.000000
2071, S3, 3,, 0.000000
1625, S3, 3,, 0.000000
3819, S3, 3,, 0.000000
353, S3, 3,, 0.000000
289, S3, 3,, 0.000000
121, S3, 3,, 0.000000
355, S3, 3,, 0.000000
709, S3, 3,, 0.000000
** ... 21 like lines cut
*NODE FILE,FREQUENCYF=25000
VF,PSF
*END STEP
