**
**   Structure: NACA0012 Airfoil.
**   Test objective: compressible, viscous, laminar, 3D fluid flow.
**
**   Reference: S. Mittal, Finite element commputation of unsteady
**              viscous compressible flows, Comput. Meth. Appl. Mech. Eng.
**              (157), 151-175 (1998).
**
*NODE, NSET=Nall
       1,7.599999999999e-04,-1.412800000000e-01,7.375285278333e-17
       2,-1.580784004032e-02,-1.348329387555e-01,1.626845359814e-16
       3,-1.580784004032e-02,-1.348329387555e-01,1.000000000000e+00
       4,7.599999999999e-04,-1.412800000000e-01,1.000000000000e+00
       5,9.956648818024e-03,-1.153390914532e-01,7.375285278333e-17
       6,-3.828147350982e-03,-1.099951850814e-01,1.626845359814e-16
       7,-3.828147350982e-03,-1.099951850814e-01,1.000000000000e+00
       8,9.956648818024e-03,-1.153390914532e-01,1.000000000000e+00
       9,1.716112910544e-02,-9.501747561669e-02,7.375285278333e-17
      10,5.557211764297e-03,-9.053811744006e-02,7.375285278333e-17
      11,5.557211764297e-03,-9.053811744006e-02,1.000000000000e+00
      12,1.716112910544e-02,-9.501747561669e-02,1.000000000000e+00
      13,2.280498234358e-02,-7.909790713045e-02,7.375285278333e-17
      14,1.290995065265e-02,-7.529603906161e-02,7.375285278333e-17
      15,1.290995065265e-02,-7.529603906161e-02,1.000000000000e+00
      16,2.280498234358e-02,-7.909790713045e-02,1.000000000000e+00
      17,2.722626994560e-02,-6.662681906211e-02,7.375285278333e-17
      18,1.867020862436e-02,-6.335581856743e-02,7.375285278333e-17
      19,1.867020862436e-02,-6.335581856743e-02,1.000000000000e+00
      20,2.722626994560e-02,-6.662681906211e-02,1.000000000000e+00
** ... 4980 like lines cut
*ELEMENT, TYPE=F3D8, ELSET=Eall
     1,     1,     2,     3,     4,     5,     6,     7,     8
     2,     5,     6,     7,     8,     9,    10,    11,    12
     3,     9,    10,    11,    12,    13,    14,    15,    16
     4,    13,    14,    15,    16,    17,    18,    19,    20
     5,    17,    18,    19,    20,    21,    22,    23,    24
     6,    21,    22,    23,    24,    25,    26,    27,    28
     7,    25,    26,    27,    28,    29,    30,    31,    32
     8,    29,    30,    31,    32,    33,    34,    35,    36
     9,    33,    34,    35,    36,    37,    38,    39,    40
    10,    37,    38,    39,    40,    41,    42,    43,    44
    11,     2,    45,    46,     3,     6,    47,    48,     7
    12,     6,    47,    48,     7,    10,    49,    50,    11
    13,    10,    49,    50,    11,    14,    51,    52,    15
    14,    14,    51,    52,    15,    18,    53,    54,    19
    15,    18,    53,    54,    19,    22,    55,    56,    23
    16,    22,    55,    56,    23,    26,    57,    58,    27
    17,    26,    57,    58,    27,    30,    59,    60,    31
    18,    30,    59,    60,    31,    34,    61,    62,    35
    19,    34,    61,    62,    35,    38,    63,    64,    39
    20,    38,    63,    64,    39,    42,    65,    66,    43
** ... 2380 like lines cut
** Surfaces based on in
*SURFACE, NAME=Sin
201, S6
1710, S6
202, S6
203, S6
204, S6
205, S6
206, S6
207, S6
208, S6
209, S6
210, S6
1301, S6
1302, S6
1303, S6
1304, S6
1305, S6
1306, S6
1307, S6
1308, S6
1309, S6
** ... 22 like lines cut
** Surfaces based on out
*SURFACE, NAME=Sout
1810, S2
2010, S6
1820, S2
1830, S2
1840, S2
1850, S2
1860, S2
1870, S2
1880, S2
1890, S2
1900, S2
1910, S2
1920, S2
1930, S2
1940, S2
1950, S2
1960, S2
1970, S2
1980, S2
1990, S2
** ... 40 like lines cut
** Surfaces based on wall
*SURFACE, NAME=SOLIDSURFACE
10, S2
391, S4
20, S2
30, S2
40, S2
50, S2
60, S2
70, S2
80, S2
90, S2
100, S2
701, S6
392, S4
393, S4
394, S4
395, S4
396, S4
397, S4
398, S4
399, S4
** ... 40 like lines cut
** Surfaces based on sliding
*SURFACE, NAME=Ssliding
1, S3
110, S3
301, S3
891, S3
11, S3
120, S3
1, S5
110, S5
11, S5
120, S5
301, S5
891, S5
2, S3
311, S3
12, S3
2, S5
12, S5
311, S5
3, S3
321, S3
** ... 4818 like lines cut
*MATERIAL,NAME=AIR
*CONDUCTIVITY
5.e-4
*FLUID CONSTANTS
1.,5.e-4,293.
*SPECIFIC GAS CONSTANT
0.285714286d0
*SOLID SECTION,ELSET=Eall,MATERIAL=AIR
*PHYSICAL CONSTANTS,ABSOLUTE ZERO=0.
*INITIAL CONDITIONS,TYPE=FLUID VELOCITY
Nall,1,1.d0
Nall,2,0.d0
Nall,3,0.d0
*INITIAL CONDITIONS,TYPE=PRESSURE
Nall,0.98863075
*INITIAL CONDITIONS,TYPE=TEMPERATURE
Nall,3.46020761
*VALUES AT INFINITY
3.46020761,1,0.98863075,1.,1.
**
*STEP,INCF=10000
*CFD,COMPRESSIBLE,SCHEME=MODSMART,SIMPLEC,STEADY STATE,2D
1.e10,1.e10,,,2.e-3
*CONTROLS,PARAMETERS=CFD
20,0,0,4
*BOUNDARYF
Sin,S,11,,3.46020761
Sin,S,1,,1.000000
Sin,S,2,3,0.000000
Sin,S,8,,0.98863075
SOLIDSURFACE,S,1,3,0.
*MASS FLOW
Ssliding,M,0.
*DFLUX
SOLIDSURFACE,S,0.
Ssliding,S,0.
*NODE FILE,FREQUENCYF=10000
MACH,VF,TSF,PSF
*END STEP

