*NODE, NSET=Nall
       1,2.387050000000e+00,-5.462040000000e+00,0.000000000000e+00
       2,2.051440000000e+00,-5.453150000000e+00,0.000000000000e+00
       3,2.051440000000e+00,-5.453150000000e+00,1.000000000000e-01
       4,2.387050000000e+00,-5.462040000000e+00,1.000000000000e-01
       5,2.387050000000e+00,-5.448570000000e+00,0.000000000000e+00
       6,2.051410000000e+00,-5.441470000000e+00,0.000000000000e+00
       7,2.051410000000e+00,-5.441470000000e+00,1.000000000000e-01
       8,2.387050000000e+00,-5.448570000000e+00,1.000000000000e-01
       9,2.387050000000e+00,-5.435110000000e+00,0.000000000000e+00
      10,2.051380000000e+00,-5.429800000000e+00,0.000000000000e+00
      11,2.051380000000e+00,-5.429800000000e+00,1.000000000000e-01
      12,2.387050000000e+00,-5.435110000000e+00,1.000000000000e-01
      13,2.387050000000e+00,-5.421640000000e+00,0.000000000000e+00
      14,2.051350000000e+00,-5.418120000000e+00,0.000000000000e+00
      15,2.051350000000e+00,-5.418120000000e+00,1.000000000000e-01
      16,2.387050000000e+00,-5.421640000000e+00,1.000000000000e-01
      17,2.387050000000e+00,-5.408170000000e+00,0.000000000000e+00
      18,2.051320000000e+00,-5.406440000000e+00,0.000000000000e+00
      19,2.051320000000e+00,-5.406440000000e+00,1.000000000000e-01
      20,2.387050000000e+00,-5.408170000000e+00,1.000000000000e-01
** ... 24794 like lines cut
*ELEMENT, TYPE=F3D8, ELSET=Eall
     1,     5,     1,     4,     8,     6,     2,     3,     7
     2,     5,     9,    10,     6,     8,    12,    11,     7
     3,     9,    13,    14,    10,    12,    16,    15,    11
     4,    13,    17,    18,    14,    16,    20,    19,    15
     5,    17,    21,    22,    18,    20,    24,    23,    19
     6,    21,    25,    26,    22,    24,    28,    27,    23
     7,     2,    29,    30,     3,     6,    31,    32,     7
     8,     6,    31,    32,     7,    10,    33,    34,    11
     9,    10,    33,    34,    11,    14,    35,    36,    15
    10,    14,    35,    36,    15,    18,    37,    38,    19
    11,    18,    37,    38,    19,    22,    39,    40,    23
    12,    22,    39,    40,    23,    26,    41,    42,    27
    13,    29,    43,    44,    30,    31,    45,    46,    32
    14,    31,    45,    46,    32,    33,    47,    48,    34
    15,    33,    47,    48,    34,    35,    49,    50,    36
    16,    35,    49,    50,    36,    37,    51,    52,    38
    17,    37,    51,    52,    38,    39,    53,    54,    40
    18,    39,    53,    54,    40,    41,    55,    56,    42
    19,    43,    57,    58,    44,    45,    59,    60,    46
    20,    45,    59,    60,    46,    47,    61,    62,    48
** ... 12036 like lines cut
** Surfaces based on in
*SURFACE, NAME=Sin
3085, S4
3300, S2
3086, S4
3087, S4
3088, S4
3089, S4
3090, S4
3091, S4
3092, S4
3093, S4
3094, S4
3095, S4
3096, S4
3097, S4
3098, S4
3099, S4
3100, S4
3101, S4
3102, S4
3103, S4
** ... 100 like lines cut
** Surfaces based on out
*SURFACE, NAME=Sout
1, S1
7940, S1
2, S3
3, S3
4, S3
5, S3
6, S3
276, S3
151, S4
7421, S3
176, S1
201, S1
226, S1
251, S1
3301, S1
3302, S3
3303, S3
3304, S3
3305, S3
3306, S3
** ... 56 like lines cut
** Surfaces based on wall
*SURFACE, NAME=Swall
9447, S5
9537, S2
8426, S4
9616, S5
8432, S2
8438, S2
8444, S2
8450, S2
8456, S2
8462, S2
8468, S2
8474, S2
8480, S2
8486, S2
8492, S2
8498, S2
8504, S2
8510, S2
8516, S2
8522, S2
** ... 246 like lines cut
** Surfaces based on sliding
*SURFACE, NAME=Ssliding
1, S3
7940, S3
7, S3
7960, S3
1, S5
7940, S5
7, S5
7960, S5
2, S1
8, S3
2, S2
8, S5
3, S1
9, S3
3, S2
9, S5
4, S1
10, S3
4, S2
10, S5
** ... 24332 like lines cut
*MATERIAL,NAME=AIR
*CONDUCTIVITY
0.
*FLUID CONSTANTS
1004.85,1.786e-5,288.
*SPECIFIC GAS CONSTANT
287.1
*SOLID SECTION,ELSET=Eall,MATERIAL=AIR
*PHYSICAL CONSTANTS,ABSOLUTE ZERO=0.
*INITIAL CONDITIONS,TYPE=FLUID VELOCITY
Nall,1,248.
Nall,2,0.
Nall,3,0.
*INITIAL CONDITIONS,TYPE=PRESSURE
Nall,1.e5
*INITIAL CONDITIONS,TYPE=TEMPERATURE
Nall,288.
**
*STEP,INCF=5000
*CFD,COMPRESSIBLE,2D,STEADY STATE
1.e10,1.e10
*CONTROLS,PARAMETERS=CFD
20,0,0,4
*DFLUX
Swall,S,0.
Ssliding,S,0.
*BOUNDARYF
Sin,S,11,11,288.
Sin,S,1,1,248.
Sin,S,2,2,0.
Sin,S,2,3,0.
Sout,S,8,8,1.e5
*MASS FLOW
Swall,M,0.
Ssliding,M,0.
*NODE FILE,FREQUENCYF=5000
VF,PSF,TSF,TTF,MACH
*END STEP
