*NODE, NSET=Nall
       1,0.000000000000e+00,1.000000000000e+00,0.000000000000e+00
       2,1.500000000000e-02,1.000000000000e+00,0.000000000000e+00
       3,1.500000000000e-02,1.000000000000e+00,1.000000000000e-01
       4,0.000000000000e+00,1.000000000000e+00,1.000000000000e-01
       5,0.000000000000e+00,9.875000000000e-01,0.000000000000e+00
       6,1.500000000000e-02,9.875000000000e-01,0.000000000000e+00
       7,1.500000000000e-02,9.875000000000e-01,1.000000000000e-01
       8,0.000000000000e+00,9.875000000000e-01,1.000000000000e-01
       9,0.000000000000e+00,9.750000000000e-01,0.000000000000e+00
      10,1.500000000000e-02,9.750000000000e-01,-1.387778780781e-17
      11,1.500000000000e-02,9.750000000000e-01,1.000000000000e-01
      12,0.000000000000e+00,9.750000000000e-01,1.000000000000e-01
      13,0.000000000000e+00,9.625000000000e-01,0.000000000000e+00
      14,1.500000000000e-02,9.625000000000e-01,0.000000000000e+00
      15,1.500000000000e-02,9.625000000000e-01,1.000000000000e-01
      16,0.000000000000e+00,9.625000000000e-01,1.000000000000e-01
      17,0.000000000000e+00,9.500000000000e-01,0.000000000000e+00
      18,1.500000000000e-02,9.500000000000e-01,6.938893903907e-18
      19,1.500000000000e-02,9.500000000000e-01,1.000000000000e-01
      20,0.000000000000e+00,9.500000000000e-01,1.000000000000e-01
** ... 27422 like lines cut
*ELEMENT, TYPE=F3D8, ELSET=Eall
     1,     1,     2,     3,     4,     5,     6,     7,     8
     2,     5,     6,     7,     8,     9,    10,    11,    12
     3,     9,    10,    11,    12,    13,    14,    15,    16
     4,    13,    14,    15,    16,    17,    18,    19,    20
     5,    17,    18,    19,    20,    21,    22,    23,    24
     6,    21,    22,    23,    24,    25,    26,    27,    28
     7,    25,    26,    27,    28,    29,    30,    31,    32
     8,    29,    30,    31,    32,    33,    34,    35,    36
     9,    33,    34,    35,    36,    37,    38,    39,    40
    10,    37,    38,    39,    40,    41,    42,    43,    44
    11,    41,    42,    43,    44,    45,    46,    47,    48
    12,    45,    46,    47,    48,    49,    50,    51,    52
    13,    49,    50,    51,    52,    53,    54,    55,    56
    14,    53,    54,    55,    56,    57,    58,    59,    60
    15,    57,    58,    59,    60,    61,    62,    63,    64
    16,    61,    62,    63,    64,    65,    66,    67,    68
    17,    65,    66,    67,    68,    69,    70,    71,    72
    18,    69,    70,    71,    72,    73,    74,    75,    76
    19,    73,    74,    75,    76,    77,    78,    79,    80
    20,    77,    78,    79,    80,    81,    82,    83,    84
** ... 13420 like lines cut
** Surfaces based on in
*SURFACE, NAME=Sin
1, S6
2, S6
3, S6
4, S6
5, S6
6, S6
7, S6
8, S6
9, S6
10, S6
11, S6
12, S6
13, S6
14, S6
15, S6
16, S6
17, S6
18, S6
19, S6
20, S6
** ... 60 like lines cut
** Surfaces based on out
*SURFACE, NAME=Sout
3201, S1
3361, S1
3521, S1
3681, S1
3841, S1
4001, S1
4161, S1
4321, S1
4481, S1
4641, S1
4801, S1
4961, S1
5121, S1
5281, S1
5441, S1
5601, S1
5761, S1
5921, S1
6081, S1
6241, S1
** ... 44 like lines cut
** Surfaces based on wall
*SURFACE, NAME=Swall
1, S1
65, S1
129, S1
193, S1
257, S1
321, S1
385, S1
449, S1
513, S1
577, S1
641, S1
705, S1
769, S1
833, S1
897, S1
961, S1
1025, S1
1089, S1
1153, S1
1217, S1
** ... 396 like lines cut
** Surfaces based on sliding
*SURFACE, NAME=Ssliding
1, S3
65, S3
1, S5
65, S5
2, S3
66, S3
2, S5
66, S5
3, S3
67, S3
3, S5
67, S5
4, S3
68, S3
4, S5
68, S5
5, S3
69, S3
5, S5
69, S5
** ... 26860 like lines cut
*MATERIAL,NAME=AIR
*FLUID CONSTANTS
2.5,18.1e-6
*SPECIFIC GAS CONSTANT
0.714286
*CONDUCTIVITY
32.3e-6
*SOLID SECTION,ELSET=Eall,MATERIAL=AIR
*INITIAL CONDITIONS,TYPE=FLUID VELOCITY
Nall,1,0.
Nall,2,0.
Nall,3,0.
*INITIAL CONDITIONS,TYPE=PRESSURE
Nall,1.
*INITIAL CONDITIONS,TYPE=TEMPERATURE
Nall,1.
*STEP,INCF=5000
*CFD,COMPRESSIBLE,SIMPLEC,STEADY STATE,2D
1.e10,1.e10,
*BOUNDARYF
Sin,S,1,1,3.
Sin,S,2,3,0.
Sin,S,8,8,1.
Sin,S,11,11,1.
*MASS FLOW
Ssliding,M,0.
Swall,M,0.
*NODE FILE,FREQUENCYF=5000
VF,PSF,TSF,MACH,TTF
*END STEP
