*NODE, NSET=Nall
       1,0.000000000000e+00,4.000000000000e-01,0.000000000000e+00
       2,0.000000000000e+00,3.750000000000e-01,0.000000000000e+00
       3,2.238799143011e-02,3.847539662603e-01,0.000000000000e+00
       4,0.000000000000e+00,3.500000000000e-01,0.000000000000e+00
       5,0.000000000000e+00,3.250000000000e-01,0.000000000000e+00
       6,2.744367189393e-02,3.359315274319e-01,0.000000000000e+00
       7,2.226901968849e-02,4.121101165102e-01,0.000000000000e+00
       8,4.516650276715e-02,3.970631267631e-01,0.000000000000e+00
       9,4.617074079499e-02,7.766047927792e-02,0.000000000000e+00
      10,2.523778615092e-02,6.313111242641e-02,0.000000000000e+00
      11,5.524885239439e-02,4.952378377683e-02,0.000000000000e+00
      12,0.000000000000e+00,2.500000000000e-02,0.000000000000e+00
      13,0.000000000000e+00,0.000000000000e+00,0.000000000000e+00
      14,3.000000000000e-02,0.000000000000e+00,0.000000000000e+00
      15,8.711904428398e-02,4.727634384045e-02,0.000000000000e+00
      16,7.646302673408e-02,2.400179128344e-02,0.000000000000e+00
      17,1.167499540772e-01,2.584520321592e-02,0.000000000000e+00
      18,4.967844995803e-02,2.179931363811e-02,0.000000000000e+00
      19,5.216921732473e-02,1.069173448045e-01,0.000000000000e+00
      20,2.458484470967e-02,9.042695594594e-02,0.000000000000e+00
** ... 5954 like lines cut
*ELEMENT, TYPE=F3D6, ELSET=Eall
     1,     1,     2,     3,  2955,  2956,  2957
     2,     4,     5,     6,  2958,  2959,  2960
     3,     7,     3,     8,  2961,  2957,  2962
     4,     9,    10,    11,  2963,  2964,  2965
     5,    12,    13,    14,  2966,  2967,  2968
     6,    15,    16,    17,  2969,  2970,  2971
     7,    18,    16,    11,  2972,  2970,  2965
     8,     9,    19,    20,  2963,  2973,  2974
     9,    19,    21,    22,  2973,  2975,  2976
    10,    23,    24,    25,  2977,  2978,  2979
    11,    26,    20,    22,  2980,  2974,  2976
    12,    27,    28,    29,  2981,  2982,  2983
    13,    19,     9,    30,  2973,  2963,  2984
    14,    31,    32,    33,  2985,  2986,  2987
    15,    34,    35,    36,  2988,  2989,  2990
    16,    37,    38,    39,  2991,  2992,  2993
    17,    40,    41,    42,  2994,  2995,  2996
    18,    43,    44,    45,  2997,  2998,  2999
    19,    46,    23,    47,  3000,  2977,  3001
    20,    48,    49,    50,  3002,  3003,  3004
** ... 5606 like lines cut
*ELEMENT, TYPE=F3D8, ELSET=Eall
  5627,   201,   200,  6167,  6168,  3155,  3154,  6171,  6172
  5628,   200,   693,  6174,  6167,  3154,  3647,  6176,  6171
  5629,   693,   204,  6178,  6174,  3647,  3158,  6180,  6176
  5630,   204,   203,  6182,  6178,  3158,  3157,  6184,  6180
  5631,   203,   214,  6186,  6182,  3157,  3168,  6188,  6184
  5632,   214,   213,  6190,  6186,  3168,  3167,  6192,  6188
  5633,   213,   707,  6194,  6190,  3167,  3661,  6196,  6192
  5634,   707,   296,  6198,  6194,  3661,  3250,  6200,  6196
  5635,   296,   666,  6202,  6198,  3250,  3620,  6204,  6200
  5636,   666,  1333,  6206,  6202,  3620,  4287,  6208,  6204
  5637,  1333,   303,  6210,  6206,  4287,  3257,  6212,  6208
  5638,   303,   241,  6214,  6210,  3257,  3195,  6216,  6212
  5639,   241,   210,  6218,  6214,  3195,  3164,  6220,  6216
  5640,   210,   209,  6222,  6218,  3164,  3163,  6224,  6220
  5641,   209,   153,  6226,  6222,  3163,  3107,  6228,  6224
  5642,   153,   152,  6230,  6226,  3107,  3106,  6232,  6228
  5643,   152,  2578,  6234,  6230,  3106,  5532,  6236,  6232
  5644,  2578,   182,  6238,  6234,  5532,  3136,  6240,  6236
  5645,   182,   181,  6242,  6238,  3136,  3135,  6244,  6240
  5646,   181,  1340,  6246,  6242,  3135,  4294,  6248,  6244
** ... 12 like lines cut
** Surfaces based on in
*SURFACE, NAME=Sin
1, S3
1823, S3
305, S3
2, S3
35, S3
5, S3
283, S3
281, S3
1139, S3
18, S3
2813, S3
691, S3
26, S3
2848, S3
687, S3
28, S3
2841, S3
302, S3
245, S3
277, S3
** ... 20 like lines cut
** Surfaces based on out
*SURFACE, NAME=Sout
5627, S5
5628, S5
5629, S5
5630, S5
5631, S5
5632, S5
5633, S5
5634, S5
5635, S5
5636, S5
5637, S5
5638, S5
5639, S5
5640, S5
5641, S5
5642, S5
5643, S5
5644, S5
5645, S5
5646, S5
** ... 12 like lines cut
** Surfaces based on wall
*SURFACE, NAME=Swall
5, S4
285, S3
290, S3
741, S3
23, S3
2843, S3
2192, S3
29, S3
257, S3
2167, S3
34, S3
4691, S3
280, S3
37, S3
38, S3
37, S4
304, S3
735, S3
1177, S3
737, S3
** ... 190 like lines cut
** Surfaces based on sliding
*SURFACE, NAME=Ssliding
1, S1
1159, S1
1823, S1
1828, S1
305, S1
3, S1
2205, S1
1827, S1
2, S1
4897, S1
689, S1
35, S1
24, S1
1840, S1
4898, S1
1826, S1
1824, S1
727, S1
2201, S1
309, S1
** ... 11296 like lines cut
*MATERIAL,NAME=AIR
*FLUID CONSTANTS
2.5,18.1e-6
*SPECIFIC GAS CONSTANT
0.714286
*CONDUCTIVITY
32.3e-6
*SOLID SECTION,ELSET=Eall,MATERIAL=AIR
*INITIAL CONDITIONS,TYPE=FLUID VELOCITY
Nall,1,0.
Nall,2,0.
Nall,3,0.
*INITIAL CONDITIONS,TYPE=PRESSURE
Nall,1.
*INITIAL CONDITIONS,TYPE=TEMPERATURE
Nall,1.
*STEP,INCF=6000
*CFD,COMPRESSIBLE,STEADY STATE
1.e10,1.e10,
*CONTROLS,PARAMETERS=CFD
20,0,0,4
*BOUNDARYF
Sin,S,1,1,3.
Sin,S,2,3,0.
Sin,S,8,8,1.
Sin,S,11,11,1.
*MASS FLOW
Ssliding,M,0.
Swall,M,0.
*NODE FILE,FREQUENCYF=6000
VF,PSF,TSF,MACH,TTF
*END STEP
