**
**   Structure: disk.
**   Test objective: heat transfer with CAX6 elements
**
*NODE, NSET=Nall
       1,  0.00000e+00   ,  1.00000e+00,0.00000e+00
       2,  0.00000e+00   ,  5.00000e-01,0.00000e+00
       3,  1.00000e+00   ,  1.00000e+00,0.00000e+00
       4,  0.00000e+00   ,  7.50000e-01,0.00000e+00
       5,  5.00000e-01   ,  7.50000e-01,0.00000e+00
       6,  5.00000e-01   ,  1.00000e+00,0.00000e+00
       7,  1.00000e+00   ,  5.00000e-01,0.00000e+00
       8,  5.00000e-01   ,  5.00000e-01,0.00000e+00
       9,  1.00000e+00   ,  7.50000e-01,0.00000e+00
      10,  2.00000e+00   ,  1.00000e+00,0.00000e+00
      11,  1.50000e+00   ,  7.50000e-01,0.00000e+00
      12,  1.50000e+00   ,  1.00000e+00,0.00000e+00
      13,  2.00000e+00   ,  5.00000e-01,0.00000e+00
      14,  1.50000e+00   ,  5.00000e-01,0.00000e+00
      15,  2.00000e+00   ,  7.50000e-01,0.00000e+00
      16,  3.00000e+00   ,  1.00000e+00,0.00000e+00
      17,  2.50000e+00   ,  7.50000e-01,0.00000e+00
      18,  2.50000e+00   ,  1.00000e+00,0.00000e+00
      19,  3.00000e+00   ,  5.00000e-01,0.00000e+00
      20,  2.50000e+00   ,  5.00000e-01,0.00000e+00
** ... 65 like lines cut
*ELEMENT, TYPE=CAX6, ELSET=Eall
     1,      1,      2,      3,      4,      5,      6
     2,      3,      2,      7,      5,      8,      9
     3,      3,      7,     10,      9,     11,     12
     4,     10,      7,     13,     11,     14,     15
     5,     10,     13,     16,     15,     17,     18
     6,     16,     13,     19,     17,     20,     21
     7,     16,     19,     22,     21,     23,     24
     8,     22,     19,     25,     23,     26,     27
     9,     22,     25,     28,     27,     29,     30
    10,     28,     25,     31,     29,     32,     33
    11,     28,     31,     34,     33,     35,     36
    12,     34,     31,     37,     35,     38,     39
    13,     34,     37,     40,     39,     41,     42
    14,     40,     37,     43,     41,     44,     45
    15,     40,     43,     46,     45,     47,     48
    16,     46,     43,     49,     47,     50,     51
    17,      2,     52,      7,     53,     54,      8
    18,      7,     52,     55,     54,     56,     57
    19,      7,     55,     13,     57,     58,     14
    20,     13,     55,     59,     58,     60,     61
** ... 12 like lines cut
*MATERIAL,NAME=EL
*DENSITY
7800.
*CONDUCTIVITY
50.
*SPECIFIC HEAT
446.
*SOLID SECTION,ELSET=Eall,MATERIAL=EL
0.01
*INITIAL CONDITIONS,TYPE=TEMPERATURE
Nall,20.
**
*STEP,NLGEOM
*HEAT TRANSFER,STEADY STATE
*BOUNDARY
1,11,11,0.
46,11,11,100.
*EL PRINT,ELSET=Eall
HFL
*END STEP
