**
**   Structure: cylindrical shell
**   Test objective: cavity radiation for axisymmetric elements
**
*NODE, NSET=Nall
       1,  1.05000e+00,  0.00000e+00,  0.00000e+00 
       2,  1.05000e+00,  3.00000e-01,  0.00000e+00 
       3,  1.00000e+00,  3.00000e-01,  0.00000e+00 
       4,  1.00000e+00,  0.00000e+00,  0.00000e+00 
       5,  1.05000e+00,  1.50000e-01,  0.00000e+00 
       6,  1.02500e+00,  3.00000e-01,  0.00000e+00 
       7,  1.00000e+00,  1.50000e-01,  0.00000e+00 
       8,  1.02500e+00,  0.00000e+00,  0.00000e+00 
       9,  1.05000e+00,  6.00000e-01,  0.00000e+00 
      10,  1.00000e+00,  6.00000e-01,  0.00000e+00 
      11,  1.05000e+00,  4.50000e-01,  0.00000e+00 
      12,  1.02500e+00,  6.00000e-01,  0.00000e+00 
      13,  1.00000e+00,  4.50000e-01,  0.00000e+00 
      14,  1.05000e+00,  9.00000e-01,  0.00000e+00 
      15,  1.00000e+00,  9.00000e-01,  0.00000e+00 
      16,  1.05000e+00,  7.50000e-01,  0.00000e+00 
      17,  1.02500e+00,  9.00000e-01,  0.00000e+00 
      18,  1.00000e+00,  7.50000e-01,  0.00000e+00 
      19,  1.05000e+00,  1.20000e+00,  0.00000e+00 
      20,  1.00000e+00,  1.20000e+00,  0.00000e+00 
** ... 33 like lines cut
*ELEMENT, TYPE=CAX8, ELSET=Eall
     1,      1,      2,      3,      4,      5,      6,      7,      8
     2,      2,      9,     10,      3,     11,     12,     13,      6
     3,      9,     14,     15,     10,     16,     17,     18,     12
     4,     14,     19,     20,     15,     21,     22,     23,     17
     5,     19,     24,     25,     20,     26,     27,     28,     22
     6,     24,     29,     30,     25,     31,     32,     33,     27
     7,     29,     34,     35,     30,     36,     37,     38,     32
     8,     34,     39,     40,     35,     41,     42,     43,     37
     9,     39,     44,     45,     40,     46,     47,     48,     42
    10,     44,     49,     50,     45,     51,     52,     53,     47
*NSET,NSET=Nfix1 
25, 
30, 
33, 
35, 
38, 
40, 
43, 
45, 
48, 
50, 
53, 
*NSET,NSET=Nfix2 
3, 
4, 
7, 
10, 
13, 
15, 
18, 
20, 
23, 
28, 
*PHYSICAL CONSTANTS,ABSOLUTE ZERO=0.,STEFAN BOLTZMANN=5.669E-8
*MATERIAL,NAME=EL
*DENSITY
7800.
*CONDUCTIVITY
.05,0.
*SPECIFIC HEAT
446.
*SOLID SECTION,ELSET=Eall,MATERIAL=EL
0.17453
*INITIAL CONDITIONS,TYPE=TEMPERATURE
Nfix1,1000.
Nfix2,500.
**
*STEP,INC=100
*HEAT TRANSFER
.1,1000.
*RADIATE
Eall,R3CR,300.,.8
*EL PRINT,ELSET=Eall,FREQUENCY=10
HFL
*END STEP
