**
**   Structure: cylinder with several cavities
**   Test objective: cavity radiation for axisymmetric elements
**   If you run this example for the first time, replace
**   *VIEWFACTOR,READ into *VIEWFACTOR,WRITE. It leads to the
**   creation of file axrad2.vwf containing the viewfactors. This
**   can take a while. For subsequent runs this file can be
**   reused by using the *VIEWFACTOR,READ card. This 
**   speeds up the execution time.
**
*NODE, NSET=Nall
       1,   1.90000E-1,  -5.00000E-2,   0.00000E+0
       2,   1.90000E-1,  -4.75000E-2,   0.00000E+0
       3,   1.90000E-1,  -4.50000E-2,   0.00000E+0
       4,   1.90000E-1,  -4.25000E-2,   0.00000E+0
       5,   1.90000E-1,  -4.00000E-2,   0.00000E+0
       6,   1.90000E-1,  -3.75000E-2,   0.00000E+0
       7,   1.90000E-1,  -3.50000E-2,   0.00000E+0
       8,   1.92500E-1,  -5.00000E-2,   0.00000E+0
       9,   1.92500E-1,  -4.75000E-2,   0.00000E+0
      10,   1.92500E-1,  -4.50000E-2,   0.00000E+0
      11,   1.92500E-1,  -4.25000E-2,   0.00000E+0
      12,   1.92500E-1,  -4.00000E-2,   0.00000E+0
      13,   1.92500E-1,  -3.75000E-2,   0.00000E+0
      14,   1.92500E-1,  -3.50000E-2,   0.00000E+0
      15,   1.95000E-1,  -5.00000E-2,   0.00000E+0
      16,   1.95000E-1,  -4.75000E-2,   0.00000E+0
      17,   1.95000E-1,  -4.50000E-2,   0.00000E+0
      18,   1.95000E-1,  -4.25000E-2,   0.00000E+0
      19,   1.95000E-1,  -4.00000E-2,   0.00000E+0
      20,   1.95000E-1,  -3.75000E-2,   0.00000E+0
** ... 3853 like lines cut
*NODE, NSET=Nfluid
    1420,   2.13738E-1,   2.01712E-4,  -5.00000E-2
    1421,   9.83122E-2,  -7.61659E-2,  -5.00000E-2
    1422,   9.74378E-2,   7.68608E-2,  -5.00000E-2
*PHYSICAL CONSTANTS, ABSOLUTE ZERO=0.0, STEFAN BOLTZMANN=5.67E-8
*NSET, NSET=TF_1
  1420
*NSET, NSET=TF_2
  1421
*NSET, NSET=TF_3
  1422
*ELEMENT, TYPE=CAX8R, ELSET=MPR.1
     1,     1,     8,     9,     2,  1424,  1425,  1426,  1427
     2,     2,     9,    10,     3,  1426,  1428,  1429,  1430
     3,     3,    10,    11,     4,  1429,  1431,  1432,  1433
     4,     4,    11,    12,     5,  1432,  1434,  1435,  1436
     5,     5,    12,    13,     6,  1435,  1437,  1438,  1439
     6,     6,    13,    14,     7,  1438,  1440,  1441,  1442
     7,     8,    15,    16,     9,  1443,  1444,  1445,  1425
     8,     9,    16,    17,    10,  1445,  1446,  1447,  1428
     9,    10,    17,    18,    11,  1447,  1448,  1449,  1431
    10,    11,    18,    19,    12,  1449,  1450,  1451,  1434
    11,    12,    19,    20,    13,  1451,  1452,  1453,  1437
    12,    13,    20,    21,    14,  1453,  1454,  1455,  1440
    13,    15,    22,    23,    16,  1456,  1457,  1458,  1444
    14,    16,    23,    24,    17,  1458,  1459,  1460,  1446
    15,    17,    24,    25,    18,  1460,  1461,  1462,  1448
    16,    18,    25,    26,    19,  1462,  1463,  1464,  1450
    17,    19,    26,    27,    20,  1464,  1465,  1466,  1452
    18,    20,    27,    28,    21,  1466,  1467,  1468,  1454
    19,    22,    29,    30,    23,  1469,  1470,  1471,  1457
    20,    23,    30,    31,    24,  1471,  1472,  1473,  1459
** ... 1120 like lines cut
*SOLID SECTION, ELSET=MPR.1, MATERIAL=MAT_1
*MATERIAL,NAME=MAT_1
*CONDUCTIVITY,TYPE=ISO
 0.114000E+02,  0.293000E+03
 0.127000E+02,  0.373000E+03
 0.143000E+02,  0.473000E+03
 0.159000E+02,  0.573000E+03
 0.175000E+02,  0.673000E+03
 0.191000E+02,  0.773000E+03
 0.207000E+02,  0.873000E+03
 0.223000E+02,  0.973000E+03
 0.239000E+02,  0.107300E+04
 0.255000E+02,  0.117300E+04
 0.271000E+02,  0.127300E+04
 0.287000E+02,  0.137300E+04
*DENSITY
 0.822000E+04
*SPECIFIC HEAT
 0.431000E+03,  0.293000E+03
 0.451000E+03,  0.373000E+03
 0.476000E+03,  0.473000E+03
 0.501000E+03,  0.573000E+03
 0.527000E+03,  0.673000E+03
 0.551000E+03,  0.773000E+03
 0.576000E+03,  0.873000E+03
 0.601000E+03,  0.973000E+03
 0.627000E+03,  0.107300E+04
 0.651000E+03,  0.117300E+04
 0.676000E+03,  0.127300E+04
 0.701000E+03,  0.137300E+04
*AMPLITUDE,NAME=A_BP_1,TIME=TOTAL TIME
 0.000000E+00,  0.100000E+05,  0.100000E+04,  0.100000E+05,  0.200000E+04,  0.100000E+05
*AMPLITUDE,NAME=A_BP_2,TIME=TOTAL TIME
 0.000000E+00,  0.100000E+06,  0.100000E+04,  0.100000E+06,  0.200000E+04,  0.100000E+06
*AMPLITUDE,NAME=A_TF_1,TIME=TOTAL TIME
 0.000000E+00,  0.150000E+04,  0.100000E+04,  0.150000E+04,  0.200000E+04,  0.150000E+04
*AMPLITUDE,NAME=A_TF_2,TIME=TOTAL TIME
 0.000000E+00,  0.500000E+03,  0.100000E+04,  0.500000E+03,  0.200000E+04,  0.500000E+03
*AMPLITUDE,NAME=A_TF_3,TIME=TOTAL TIME
 0.000000E+00,  0.600000E+03,  0.100000E+04,  0.600000E+03,  0.200000E+04,  0.600000E+03
*AMPLITUDE,NAME=A_EMISS_200101,TIME=TOTAL TIME
 0.000000E+00,  0.720000E+00,  0.100000E+06,  0.720000E+00
*AMPLITUDE,NAME=A_EMISS_200102,TIME=TOTAL TIME
 0.000000E+00,  0.720000E+00,  0.100000E+06,  0.720000E+00
*AMPLITUDE,NAME=A_EMISS_200103,TIME=TOTAL TIME
 0.000000E+00,  0.720000E+00,  0.100000E+06,  0.720000E+00
*AMPLITUDE,NAME=A_EMISS_200104,TIME=TOTAL TIME
 0.000000E+00,  0.720000E+00,  0.100000E+06,  0.720000E+00
*AMPLITUDE,NAME=A_EMISS_200201,TIME=TOTAL TIME
 0.000000E+00,  0.720000E+00,  0.100000E+06,  0.720000E+00
*AMPLITUDE,NAME=A_EMISS_200202,TIME=TOTAL TIME
 0.000000E+00,  0.720000E+00,  0.100000E+06,  0.720000E+00
*AMPLITUDE,NAME=A_EMISS_200203,TIME=TOTAL TIME
 0.000000E+00,  0.720000E+00,  0.100000E+06,  0.720000E+00
*TIME POINTS,NAME=TPRINT
   0.100000E+04 
*INITIAL CONDITIONS,TYPE=TEMPERATURE
Nall,  0.600000E+03
Nfluid,  0.600000E+03
*STEP
*HEAT TRANSFER, STEADY STATE
1.0e-6, 1.0e-6
*CONTROLS,PARAMETERS=TIME INCREMENTATION
100,100,9,100,100,4,,5,,
0.25,0.5,0.75,,,,1.5,
*VIEWFACTOR,READ
*BOUNDARY,AMPLITUDE=A_TF_1
TF_1, 11, 11, 1.0
*BOUNDARY,AMPLITUDE=A_TF_2
TF_2, 11, 11, 1.0
*BOUNDARY,AMPLITUDE=A_TF_3
TF_3, 11, 11, 1.0
*FILM
    19, F2FCNU1  ,   1420
    20, F2FCNU1  ,   1420
    21, F2FCNU1  ,   1420
    22, F2FCNU1  ,   1420
    23, F2FCNU1  ,   1420
    24, F2FCNU1  ,   1420
  1024, F2FCNU1  ,   1420
  1028, F2FCNU1  ,   1420
  1032, F2FCNU1  ,   1420
  1036, F2FCNU1  ,   1420
  1040, F2FCNU1  ,   1420
  1044, F2FCNU1  ,   1420
  1048, F2FCNU1  ,   1420
  1052, F2FCNU1  ,   1420
  1056, F2FCNU1  ,   1420
  1060, F2FCNU1  ,   1420
  1064, F2FCNU1  ,   1420
  1068, F2FCNU1  ,   1420
  1072, F2FCNU1  ,   1420
  1076, F2FCNU1  ,   1420
** ... 182 like lines cut
*RADIATE, CAVITY=1
  1021, R4CRNU101,   -1.000, 1.0
  1025, R4CRNU101,   -1.000, 1.0
  1029, R4CRNU101,   -1.000, 1.0
  1033, R4CRNU101,   -1.000, 1.0
  1037, R4CRNU101,   -1.000, 1.0
  1041, R4CRNU101,   -1.000, 1.0
  1045, R4CRNU101,   -1.000, 1.0
  1049, R4CRNU101,   -1.000, 1.0
  1053, R4CRNU101,   -1.000, 1.0
  1057, R4CRNU101,   -1.000, 1.0
  1061, R4CRNU101,   -1.000, 1.0
  1065, R4CRNU101,   -1.000, 1.0
  1069, R4CRNU101,   -1.000, 1.0
  1073, R4CRNU101,   -1.000, 1.0
  1077, R4CRNU101,   -1.000, 1.0
  1081, R4CRNU101,   -1.000, 1.0
  1085, R4CRNU101,   -1.000, 1.0
  1089, R4CRNU101,   -1.000, 1.0
  1093, R4CRNU101,   -1.000, 1.0
  1097, R4CRNU101,   -1.000, 1.0
** ... 10 like lines cut
*RADIATE, CAVITY=1
    30, R3CRNU102,   -1.000, 1.0
    36, R3CRNU102,   -1.000, 1.0
    42, R3CRNU102,   -1.000, 1.0
    48, R3CRNU102,   -1.000, 1.0
    54, R3CRNU102,   -1.000, 1.0
    60, R3CRNU102,   -1.000, 1.0
    66, R3CRNU102,   -1.000, 1.0
    72, R3CRNU102,   -1.000, 1.0
    78, R3CRNU102,   -1.000, 1.0
    84, R3CRNU102,   -1.000, 1.0
    90, R3CRNU102,   -1.000, 1.0
    96, R3CRNU102,   -1.000, 1.0
   102, R3CRNU102,   -1.000, 1.0
   108, R3CRNU102,   -1.000, 1.0
   114, R3CRNU102,   -1.000, 1.0
   120, R3CRNU102,   -1.000, 1.0
   126, R3CRNU102,   -1.000, 1.0
   132, R3CRNU102,   -1.000, 1.0
   138, R3CRNU102,   -1.000, 1.0
   144, R3CRNU102,   -1.000, 1.0
** ... 16 like lines cut
*RADIATE, CAVITY=1
   962, R2CRNU103,   -1.000, 1.0
   964, R2CRNU103,   -1.000, 1.0
   966, R2CRNU103,   -1.000, 1.0
   968, R2CRNU103,   -1.000, 1.0
   970, R2CRNU103,   -1.000, 1.0
   972, R2CRNU103,   -1.000, 1.0
   974, R2CRNU103,   -1.000, 1.0
   976, R2CRNU103,   -1.000, 1.0
   978, R2CRNU103,   -1.000, 1.0
   980, R2CRNU103,   -1.000, 1.0
   982, R2CRNU103,   -1.000, 1.0
   984, R2CRNU103,   -1.000, 1.0
   986, R2CRNU103,   -1.000, 1.0
   988, R2CRNU103,   -1.000, 1.0
   990, R2CRNU103,   -1.000, 1.0
   992, R2CRNU103,   -1.000, 1.0
   994, R2CRNU103,   -1.000, 1.0
   996, R2CRNU103,   -1.000, 1.0
   998, R2CRNU103,   -1.000, 1.0
  1000, R2CRNU103,   -1.000, 1.0
** ... 10 like lines cut
*RADIATE, CAVITY=1
   505, R1CRNU104,   -1.000, 1.0
   511, R1CRNU104,   -1.000, 1.0
   517, R1CRNU104,   -1.000, 1.0
   523, R1CRNU104,   -1.000, 1.0
   529, R1CRNU104,   -1.000, 1.0
   535, R1CRNU104,   -1.000, 1.0
   541, R1CRNU104,   -1.000, 1.0
   547, R1CRNU104,   -1.000, 1.0
   553, R1CRNU104,   -1.000, 1.0
   559, R1CRNU104,   -1.000, 1.0
   565, R1CRNU104,   -1.000, 1.0
   571, R1CRNU104,   -1.000, 1.0
   577, R1CRNU104,   -1.000, 1.0
   583, R1CRNU104,   -1.000, 1.0
   589, R1CRNU104,   -1.000, 1.0
   595, R1CRNU104,   -1.000, 1.0
   601, R1CRNU104,   -1.000, 1.0
   607, R1CRNU104,   -1.000, 1.0
   613, R1CRNU104,   -1.000, 1.0
   619, R1CRNU104,   -1.000, 1.0
** ... 16 like lines cut
*RADIATE, CAVITY=2
   246, R3CRNU201,   -1.000, 1.0
   252, R3CRNU201,   -1.000, 1.0
   258, R3CRNU201,   -1.000, 1.0
   264, R3CRNU201,   -1.000, 1.0
   270, R3CRNU201,   -1.000, 1.0
   276, R3CRNU201,   -1.000, 1.0
   282, R3CRNU201,   -1.000, 1.0
   288, R3CRNU201,   -1.000, 1.0
   294, R3CRNU201,   -1.000, 1.0
   300, R3CRNU201,   -1.000, 1.0
   306, R3CRNU201,   -1.000, 1.0
   312, R3CRNU201,   -1.000, 1.0
   318, R3CRNU201,   -1.000, 1.0
   324, R3CRNU201,   -1.000, 1.0
   330, R3CRNU201,   -1.000, 1.0
   336, R3CRNU201,   -1.000, 1.0
   342, R3CRNU201,   -1.000, 1.0
   348, R3CRNU201,   -1.000, 1.0
   354, R3CRNU201,   -1.000, 1.0
   360, R3CRNU201,   -1.000, 1.0
** ... 18 like lines cut
*RADIATE, CAVITY=2
   961, R4CRNU202,   -1.000, 1.0
   963, R4CRNU202,   -1.000, 1.0
   965, R4CRNU202,   -1.000, 1.0
   967, R4CRNU202,   -1.000, 1.0
   969, R4CRNU202,   -1.000, 1.0
   971, R4CRNU202,   -1.000, 1.0
   973, R4CRNU202,   -1.000, 1.0
   975, R4CRNU202,   -1.000, 1.0
   977, R4CRNU202,   -1.000, 1.0
   979, R4CRNU202,   -1.000, 1.0
   981, R4CRNU202,   -1.000, 1.0
   983, R4CRNU202,   -1.000, 1.0
   985, R4CRNU202,   -1.000, 1.0
   987, R4CRNU202,   -1.000, 1.0
   989, R4CRNU202,   -1.000, 1.0
   991, R4CRNU202,   -1.000, 1.0
   993, R4CRNU202,   -1.000, 1.0
   995, R4CRNU202,   -1.000, 1.0
   997, R4CRNU202,   -1.000, 1.0
   999, R4CRNU202,   -1.000, 1.0
** ... 10 like lines cut
*RADIATE, CAVITY=2
   721, R1CRNU203,   -1.000, 1.0
   727, R1CRNU203,   -1.000, 1.0
   733, R1CRNU203,   -1.000, 1.0
   739, R1CRNU203,   -1.000, 1.0
   745, R1CRNU203,   -1.000, 1.0
   751, R1CRNU203,   -1.000, 1.0
   757, R1CRNU203,   -1.000, 1.0
   763, R1CRNU203,   -1.000, 1.0
   769, R1CRNU203,   -1.000, 1.0
   775, R1CRNU203,   -1.000, 1.0
   781, R1CRNU203,   -1.000, 1.0
   787, R1CRNU203,   -1.000, 1.0
   793, R1CRNU203,   -1.000, 1.0
   799, R1CRNU203,   -1.000, 1.0
   805, R1CRNU203,   -1.000, 1.0
   811, R1CRNU203,   -1.000, 1.0
   817, R1CRNU203,   -1.000, 1.0
   823, R1CRNU203,   -1.000, 1.0
   829, R1CRNU203,   -1.000, 1.0
   835, R1CRNU203,   -1.000, 1.0
** ... 18 like lines cut
*NODE PRINT,TIMEPOINTS=TPRINT,NSET=Nall
NT
*END STEP
