**
**   Structure: cantilever beam.
**   Test objective: tied contact for a facial slave surface
**
*NODE, NSET=Nall
       1,0.000000000000e+00,0.000000000000e+00,4.000000000000e+00
       2,5.000000000000e-01,0.000000000000e+00,4.000000000000e+00
       3,5.000000000000e-01,0.000000000000e+00,3.000000000000e+00
       4,0.000000000000e+00,0.000000000000e+00,3.000000000000e+00
       5,0.000000000000e+00,5.000000000000e-01,4.000000000000e+00
       6,5.000000000000e-01,5.000000000000e-01,4.000000000000e+00
       7,5.000000000000e-01,5.000000000000e-01,3.000000000000e+00
       8,0.000000000000e+00,5.000000000000e-01,3.000000000000e+00
       9,2.500000000000e-01,0.000000000000e+00,4.000000000000e+00
      10,5.000000000000e-01,1.665334536938e-16,3.500000000000e+00
      11,2.500000000000e-01,0.000000000000e+00,3.000000000000e+00
      12,0.000000000000e+00,0.000000000000e+00,3.500000000000e+00
      13,0.000000000000e+00,2.500000000000e-01,4.000000000000e+00
      14,5.000000000000e-01,2.500000000000e-01,4.000000000000e+00
      15,5.000000000000e-01,2.500000000000e-01,3.000000000000e+00
      16,0.000000000000e+00,2.500000000000e-01,3.000000000000e+00
      17,2.500000000000e-01,5.000000000000e-01,4.000000000000e+00
      18,5.000000000000e-01,5.000000000000e-01,3.500000000000e+00
      19,2.500000000000e-01,5.000000000000e-01,3.000000000000e+00
      20,1.665334536938e-16,5.000000000000e-01,3.500000000000e+00
** ... 262 like lines cut
*ELEMENT, TYPE=C3D20R, ELSET=Eall
     1,     1,     2,     3,     4,     5,     6,     7,     8,     9,    10,
          11,    12,    17,    18,    19,    20,    13,    14,    15,    16
     2,     4,     3,    21,    22,     8,     7,    23,    24,    11,    25,
          26,    27,    19,    30,    31,    32,    16,    15,    28,    29
     3,    22,    21,    33,    34,    24,    23,    35,    36,    26,    37,
          38,    39,    31,    42,    43,    44,    29,    28,    40,    41
     4,    34,    33,    45,    46,    36,    35,    47,    48,    38,    49,
          50,    51,    43,    54,    55,    56,    41,    40,    52,    53
     5,     5,     6,     7,     8,    57,    58,    59,    60,    17,    18,
          19,    20,    65,    66,    67,    68,    61,    62,    63,    64
     6,     8,     7,    23,    24,    60,    59,    69,    70,    19,    30,
          31,    32,    67,    73,    74,    75,    64,    63,    71,    72
     7,    24,    23,    35,    36,    70,    69,    76,    77,    31,    42,
          43,    44,    74,    80,    81,    82,    72,    71,    78,    79
     8,    36,    35,    47,    48,    77,    76,    83,    84,    43,    54,
          55,    56,    81,    87,    88,    89,    79,    78,    85,    86
     9,     2,    90,    91,     3,     6,    92,    93,     7,    94,    95,
          96,    10,    99,   100,   101,    18,    14,    97,    98,    15
    10,     3,    91,   102,    21,     7,    93,   103,    23,    96,   104,
         105,    25,   101,   107,   108,    30,    15,    98,   106,    28
** ... 44 like lines cut
*SURFACE,NAME=indf
20, S5 
28, S5 
24, S5 
32, S5 
*SURFACE,NAME=depf
1, S3 
9, S3 
5, S3 
13, S3 
*NSET,NSET=dep 
1, 
2, 
5, 
6, 
9, 
13, 
14, 
17, 
57, 
58, 
61, 
62, 
65, 
90, 
92, 
94, 
97, 
99, 
123, 
125, 
127, 
*SURFACE,NAME=Ndep,TYPE=NODE
dep
*NSET,NSET=LOAD
142, 
143, 
146, 
147, 
198, 
199, 
231, 
233, 
264, 
*NSET,NSET=FIX 
45, 
46, 
47, 
48, 
50, 
52, 
53, 
55, 
83, 
84, 
85, 
86, 
88, 
116, 
117, 
119, 
120, 
122, 
138, 
139, 
141, 
*TIE,NAME=T1
depf,indf
*BOUNDARY
FIX, 1
*BOUNDARY
FIX, 2
*BOUNDARY
FIX, 3
*MATERIAL,NAME=EL
*ELASTIC
  210000.0,        .3
*SOLID SECTION,ELSET=Eall,MATERIAL=EL
*STEP
*STATIC
*CLOAD
LOAD,2,1.
*NODE PRINT,NSET=Nall
U
*EL PRINT,ELSET=Eall
S
*END STEP
