**
**   Structure: cantilever beam under shear forces.
**   Test objective: C3D8 elements.
**
*NODE, NSET=Nall
     1,    0.000,    1.000,    0.000 
     2,    0.000,    1.000,    0.500 
     3,    0.000,    0.750,    0.500 
     4,    0.000,    0.750,    0.000 
     5,    0.250,    1.000,    0.000 
     6,    0.250,    1.000,    0.500 
     7,    0.250,    0.750,    0.500 
     8,    0.250,    0.750,    0.000 
     9,    0.000,    1.000,    1.000 
    10,    0.000,    0.750,    1.000 
    11,    0.250,    1.000,    1.000 
    12,    0.250,    0.750,    1.000 
    13,    0.000,    1.000,    1.500 
    14,    0.000,    0.750,    1.500 
    15,    0.250,    1.000,    1.500 
    16,    0.250,    0.750,    1.500 
    17,    0.000,    1.000,    2.000 
    18,    0.000,    0.750,    2.000 
    19,    0.250,    1.000,    2.000 
    20,    0.250,    0.750,    2.000 
** ... 405 like lines cut
*ELEMENT, TYPE=C3D8, ELSET=Eall
     1,     1,     2,     3,     4,     5,     6,     7,     8
*ELEMENT, TYPE=C3D8, ELSET=Eall
     2,     2,     9,    10,     3,     6,    11,    12,     7
*ELEMENT, TYPE=C3D8, ELSET=Eall
     3,     9,    13,    14,    10,    11,    15,    16,    12
*ELEMENT, TYPE=C3D8, ELSET=Eall
     4,    13,    17,    18,    14,    15,    19,    20,    16
*ELEMENT, TYPE=C3D8, ELSET=Eall
     5,    17,    21,    22,    18,    19,    23,    24,    20
*ELEMENT, TYPE=C3D8, ELSET=Eall
     6,    21,    25,    26,    22,    23,    27,    28,    24
*ELEMENT, TYPE=C3D8, ELSET=Eall
     7,    25,    29,    30,    26,    27,    31,    32,    28
*ELEMENT, TYPE=C3D8, ELSET=Eall
     8,    29,    33,    34,    30,    31,    35,    36,    32
*ELEMENT, TYPE=C3D8, ELSET=Eall
     9,    33,    37,    38,    34,    35,    39,    40,    36
*ELEMENT, TYPE=C3D8, ELSET=Eall
    10,    37,    41,    42,    38,    39,    43,    44,    40
*ELEMENT, TYPE=C3D8, ELSET=Eall
    11,    41,    45,    46,    42,    43,    47,    48,    44
*ELEMENT, TYPE=C3D8, ELSET=Eall
    12,    45,    49,    50,    46,    47,    51,    52,    48
*ELEMENT, TYPE=C3D8, ELSET=Eall
    13,    49,    53,    54,    50,    51,    55,    56,    52
*ELEMENT, TYPE=C3D8, ELSET=Eall
    14,    53,    57,    58,    54,    55,    59,    60,    56
*ELEMENT, TYPE=C3D8, ELSET=Eall
    15,    57,    61,    62,    58,    59,    63,    64,    60
*ELEMENT, TYPE=C3D8, ELSET=Eall
    16,    61,    65,    66,    62,    63,    67,    68,    64
*ELEMENT, TYPE=C3D8, ELSET=Eall
    17,     5,     6,     7,     8,    69,    70,    71,    72
*ELEMENT, TYPE=C3D8, ELSET=Eall
    18,     6,    11,    12,     7,    70,    73,    74,    71
*ELEMENT, TYPE=C3D8, ELSET=Eall
    19,    11,    15,    16,    12,    73,    75,    76,    74
*ELEMENT, TYPE=C3D8, ELSET=Eall
    20,    15,    19,    20,    16,    75,    77,    78,    76
** ... 472 like lines cut
*NSET,NSET=FIX
     1,  
     4,  
     5,  
     8,  
    69,  
    72,  
   103,  
   106,  
   137,  
   140,  
   172,  
   174,  
   206,  
   223,  
   240,  
   257,  
   259,  
   291,  
   308,  
   325,  
** ... 5 like lines cut
*BOUNDARY
FIX,1,3
*MATERIAL,NAME=EL
*ELASTIC
210000.,.3
*SOLID SECTION,ELSET=Eall,MATERIAL=EL
*NSET,NSET=LAST
    65,  
    66,  
    67,  
    68,  
   101,  
   102,  
   135,  
   136,  
   169,  
   170,  
   203,  
   204,  
   221,  
   238,  
   255,  
   288,  
   289,  
   306,  
   323,  
   340,  
** ... 5 like lines cut
*STEP
*STATIC
*CLOAD
LAST,2,0.36
*NODE PRINT,NSET=Nall
U
*EL PRINT,ELSET=Eall
S
*END STEP
