**
**   Structure: bolt through two plates
**   Test objective: contact.
**
*NODE, NSET=Nall
       1,  3.54900e+02,  3.51442e+02,  0.00000e+00 
       2,  3.55450e+02,  3.51442e+02,  0.00000e+00 
       3,  3.55454e+02,  3.50516e+02,  0.00000e+00 
       4,  3.54908e+02,  3.50574e+02,  0.00000e+00 
       5,  3.55175e+02,  3.51442e+02,  0.00000e+00 
       6,  3.55452e+02,  3.50979e+02,  0.00000e+00 
       7,  3.55181e+02,  3.50545e+02,  0.00000e+00 
       8,  3.54904e+02,  3.51008e+02,  0.00000e+00 
       9,  3.55458e+02,  3.49591e+02,  0.00000e+00 
      10,  3.54915e+02,  3.49706e+02,  0.00000e+00 
      11,  3.55456e+02,  3.50053e+02,  0.00000e+00 
      12,  3.55187e+02,  3.49649e+02,  0.00000e+00 
      13,  3.54912e+02,  3.50140e+02,  0.00000e+00 
      14,  3.55462e+02,  3.48665e+02,  0.00000e+00 
      15,  3.54923e+02,  3.48839e+02,  0.00000e+00 
      16,  3.55460e+02,  3.49128e+02,  0.00000e+00 
      17,  3.55193e+02,  3.48752e+02,  0.00000e+00 
      18,  3.54919e+02,  3.49273e+02,  0.00000e+00 
      19,  3.55466e+02,  3.47739e+02,  0.00000e+00 
      20,  3.54931e+02,  3.47971e+02,  0.00000e+00 
** ... 1183 like lines cut
*ELEMENT, TYPE=CPS8R, ELSET=Ebolt
     1,      1,      4,      3,      2,      8,      7,      6,      5
     2,      4,     10,      9,      3,     13,     12,     11,      7
     3,     10,     15,     14,      9,     18,     17,     16,     12
     4,     15,     20,     19,     14,     23,     22,     21,     17
     5,     20,     25,     24,     19,     28,     27,     26,     22
     6,     25,     30,     29,     24,     33,     32,     31,     27
     7,     30,     35,     34,     29,     38,     37,     36,     32
     8,     35,     40,     39,     34,     43,     42,     41,     37
     9,      2,      3,     45,     44,      6,     48,     47,     46
    10,      3,      9,     49,     45,     11,     51,     50,     48
    11,      9,     14,     52,     49,     16,     54,     53,     51
    12,     14,     19,     55,     52,     21,     57,     56,     54
    13,     19,     24,     58,     55,     26,     60,     59,     57
    14,     24,     29,     61,     58,     31,     63,     62,     60
    15,     29,     34,     64,     61,     36,     66,     65,     63
    16,     34,     39,     67,     64,     41,     69,     68,     66
    17,      1,     71,     70,      4,     74,     73,     72,      8
    18,     71,     76,     75,     70,     79,     78,     77,     73
    19,     76,     81,     80,     75,     84,     83,     82,     78
    20,     81,     86,     85,     80,     89,     88,     87,     83
** ... 236 like lines cut
*ELEMENT, TYPE=CAX8R, ELSET=Eplateful
   257,    850,    853,    852,    851,    857,    856,    855,    854
   258,    853,    859,    858,    852,    862,    861,    860,    856
   259,    859,    864,    863,    858,    867,    866,    865,    861
   260,    864,    869,    868,    863,    872,    871,    870,    866
   265,    889,    894,    893,    888,    897,    896,    895,    891
   266,    894,    899,    898,    893,    902,    901,    900,    896
   267,    899,    904,    903,    898,    907,    906,    905,    901
   268,    904,    909,    908,    903,    912,    911,    910,    906
   269,    851,    852,    914,    913,    855,    917,    916,    915
   270,    852,    858,    918,    914,    860,    920,    919,    917
   271,    858,    863,    921,    918,    865,    923,    922,    920
   272,    863,    868,    924,    921,    870,    926,    925,    923
   277,    888,    893,    939,    936,    895,    941,    940,    938
   278,    893,    898,    942,    939,    900,    944,    943,    941
   279,    898,    903,    945,    942,    905,    947,    946,    944
   280,    903,    908,    948,    945,    910,    950,    949,    947
   281,    913,    914,    952,    951,    916,    955,    954,    953
   282,    914,    918,    956,    952,    919,    958,    957,    955
   283,    918,    921,    959,    956,    922,    961,    960,    958
   284,    921,    924,    962,    959,    925,    964,    963,    961
** ... 44 like lines cut
*ELEMENT, TYPE=CAX8R, ELSET=Eplatered
   261,    869,    874,    873,    868,    877,    876,    875,    871
   262,    874,    879,    878,    873,    882,    881,    880,    876
   263,    879,    884,    883,    878,    887,    886,    885,    881
   264,    884,    889,    888,    883,    892,    891,    890,    886
   273,    868,    873,    927,    924,    875,    929,    928,    926
   274,    873,    878,    930,    927,    880,    932,    931,    929
   275,    878,    883,    933,    930,    885,    935,    934,    932
   276,    883,    888,    936,    933,    890,    938,    937,    935
   285,    924,    927,    965,    962,    928,    967,    966,    964
   286,    927,    930,    968,    965,    931,    970,    969,    967
   287,    930,    933,    971,    968,    934,    973,    972,    970
   288,    933,    936,    974,    971,    937,    976,    975,    973
   297,    962,    965,   1003,   1000,    966,   1005,   1004,   1002
   298,    965,    968,   1006,   1003,    969,   1008,   1007,   1005
   299,    968,    971,   1009,   1006,    972,   1011,   1010,   1008
   300,    971,    974,   1012,   1009,    975,   1014,   1013,   1011
   309,   1045,   1050,   1049,   1044,   1053,   1052,   1051,   1047
   310,   1050,   1055,   1054,   1049,   1058,   1057,   1056,   1052
   311,   1055,   1060,   1059,   1054,   1063,   1062,   1061,   1057
   312,   1060,   1065,   1064,   1059,   1068,   1067,   1066,   1062
** ... 12 like lines cut
*NSET,NSET=Nbolt
1, 
2, 
3, 
4, 
5, 
6, 
7, 
8, 
9, 
10, 
11, 
12, 
13, 
14, 
15, 
16, 
17, 
18, 
19, 
20, 
** ... 829 like lines cut
*MATERIAL,NAME=STEEL
*ELASTIC
210000.,.3
*DENSITY
7.8E-9
*EXPANSION
12.E-6
*MATERIAL,NAME=STEELRED
*ELASTIC
210000.,.3
*DENSITY
7.605e-9
*EXPANSION
12.E-6
*SOLID SECTION,ELSET=Ebolt,MATERIAL=STEEL
110.4584
*SOLID SECTION,ELSET=Eplateful,MATERIAL=STEEL
*SOLID SECTION,ELSET=Eplatered,MATERIAL=STEELRED
*SURFACE,NAME=PLATELL
257, S1 
258, S1 
259, S1 
260, S1 
261, S1 
262, S1 
263, S1 
264, S1 
265, S1 
266, S1 
267, S1 
268, S1 
*SURFACE,NAME=PLATELR
293, S3 
294, S3 
295, S3 
296, S3 
297, S3 
298, S3 
299, S3 
300, S3 
301, S3 
302, S3 
303, S3 
304, S3 
*SURFACE,NAME=PLATERR
341, S3 
342, S3 
343, S3 
344, S3 
345, S3 
346, S3 
347, S3 
348, S3 
349, S3 
350, S3 
351, S3 
352, S3 
*SURFACE,NAME=PLATERL,TYPE=NODE
1202, 
1203, 
1029, 
1033, 
1035, 
1038, 
1040, 
1043, 
1045, 
1048, 
1050, 
1053, 
1055, 
1058, 
1060, 
1063, 
1065, 
1068, 
1070, 
1073, 
** ... 5 like lines cut
*SURFACE,NAME=BOLTL,TYPE=NODE
39, 
42, 
67, 
69, 
324, 
325, 
327, 
328, 
*SURFACE,NAME=BOLTR,TYPE=NODE
538, 
541, 
580, 
582, 
799, 
802, 
804, 
807, 
*CONTACT PAIR,INTERACTION=I1,TYPE=NODE TO SURFACE
BOLTL,PLATELL
*CONTACT PAIR,INTERACTION=I1,TYPE=NODE TO SURFACE
PLATERL,PLATELR
*CONTACT PAIR,INTERACTION=I1,TYPE=NODE TO SURFACE
BOLTR,PLATERR
*SURFACE INTERACTION,NAME=I1
*SURFACE BEHAVIOR,PRESSURE-OVERCLOSURE=EXPONENTIAL
1.E-4,.1
*INITIAL CONDITIONS,TYPE=TEMPERATURE
Nall,273.
Nbolt,373.
*BOUNDARY
989,2,2
1024,2,2
427,1,1
*STEP,NLGEOM
*STATIC
1.,1.
*DLOAD
257,P1,.25
258,P1,.25
259,P1,.25
260,P1,.25
261,P1,.25
262,P1,.25
263,P1,.25
264,P1,.25
265,P1,.25
266,P1,.25
267,P1,.25
268,P1,.25
*NODE PRINT,NSET=Nall
U
*EL PRINT,ELSET=Eplatered
S
*EL PRINT,ELSET=Eplateful
S
*END STEP
