**
**   Structure: beam under compression.
**   Test objective: C3D15 wedge element.
**
*HEADING
try pressure on tri faces of wedge
*NODE, NSET=GLOBAL
      10,          0.,          0.,          0.
      11,         0.5,          0.,          0.
      12,          1.,          0.,          0.
      13,          1.,         0.5,          0.
      14,          1.,          1.,          0.
      15,         0.5,          1.,          0.
      16,          0.,          1.,          0.
      17,          0.,         0.5,          0.
      18,         0.5,         0.5,          0.
      19,        0.25,          0.,          0.
      20,          0.,        0.25,          0.
      21,        0.25,        0.25,          0.
      22,        0.75,          0.,          0.
      23,         0.5,        0.25,          0.
      24,          1.,        0.25,          0.
      25,        0.75,        0.25,          0.
      26,          1.,        0.75,          0.
      27,        0.75,         0.5,          0.
      28,        0.75,          1.,          0.
      29,        0.75,        0.75,          0.
** ... 107 like lines cut
*ELEMENT, TYPE=C3D15, ELSET=P3
     17,     10,     18,     17,     44,     52,     51,     21,     34,
             20,     55,     68,     54,     35,     43,     42
     18,     10,     11,     18,     44,     45,     52,     19,     23,
             21,     53,     57,     55,     35,     36,     43
     19,     11,     12,     18,     45,     46,     52,     22,     25,
             23,     56,     59,     57,     36,     37,     43
     20,     12,     13,     18,     46,     47,     52,     24,     27,
             25,     58,     61,     59,     37,     38,     43
     21,     17,     18,     16,     51,     52,     50,     34,     33,
             32,     68,     67,     66,     42,     43,     41
     22,     18,     15,     16,     52,     49,     50,     31,     30,
             33,     65,     64,     67,     43,     40,     41
     23,     18,     14,     15,     52,     48,     49,     29,     28,
             31,     63,     62,     65,     43,     39,     40
     24,     18,     13,     14,     52,     47,     48,     27,     26,
             29,     61,     60,     63,     43,     38,     39
     25,     44,     52,     51,     78,     86,     85,     55,     68,
             54,     89,    102,     88,     69,     77,     76
     26,     44,     45,     52,     78,     79,     86,     53,     57,
             55,     87,     91,     89,     69,     70,     77
** ... 28 like lines cut
*ELSET, ELSET=OUT_CONT, GENERATE
17,40,1
*ORIENTATION, NAME=S0, DEFINITION=COORDINATES, SYSTEM=RECTANGULAR
        1.,        0.,        0.,        0.,        1.,        0.
*MATERIAL, NAME=M1
*ELASTIC, TYPE=ISOTROPIC
 29000000.,      0.32,       70.
*EXPANSION, TYPE=ISO
    6.6E-6,       70.
*DENSITY
0.00073315
*SOLID SECTION, ELSET=P3, MATERIAL=M1, ORIENTATION=S0
*STEP, INC=100
*STATIC
*NODE PRINT,NSET=GLOBAL
   U,RF
*EL PRINT, ELSET=OUT_CONT,GLOBAL=YES
    S
*BOUNDARY, OP=NEW
   10,    1,3
   12,    2,3
   16,    3
*DLOAD, OP=NEW
   33,P2   ,       20.
   34,P2   ,       20.
   35,P2   ,       20.
   36,P2   ,       20.
   37,P2   ,       20.
   38,P2   ,       20.
   39,P2   ,       20.
   40,P2   ,       20.
   17,P1   ,       20.
   18,P1   ,       20.
   19,P1   ,       20.
   20,P1   ,       20.
   21,P1   ,       20.
   22,P1   ,       20.
   23,P1   ,       20.
   24,P1   ,       20.
*END STEP
