*NODE, NSET=Nall
       1,0.000000000000e+00,9.998476951564e-01,1.745240643728e-02
       2,0.000000000000e+00,1.000000000000e+00,0.000000000000e+00
       3,0.000000000000e+00,1.200000000000e+00,0.000000000000e+00
       4,0.000000000000e+00,1.199817234188e+00,2.094288772474e-02
       5,5.000000000000e+00,9.998476951564e-01,1.745240643728e-02
       6,5.000000000000e+00,1.000000000000e+00,0.000000000000e+00
       7,5.000000000000e+00,1.200000000000e+00,0.000000000000e+00
       8,5.000000000000e+00,1.199817234188e+00,2.094288772474e-02
       9,0.000000000000e+00,9.999619230642e-01,8.726535498374e-03
      10,0.000000000000e+00,1.100000000000e+00,0.000000000000e+00
      11,0.000000000000e+00,1.199954307677e+00,1.047184259805e-02
      12,0.000000000000e+00,1.099832464672e+00,1.919764708101e-02
      13,2.500000000000e+00,9.998476951564e-01,1.745240643728e-02
      14,2.500000000000e+00,1.000000000000e+00,0.000000000000e+00
      15,2.500000000000e+00,1.200000000000e+00,0.000000000000e+00
      16,2.500000000000e+00,1.199817234188e+00,2.094288772474e-02
      17,5.000000000000e+00,9.999619230642e-01,8.726535498374e-03
      18,5.000000000000e+00,1.100000000000e+00,0.000000000000e+00
      19,5.000000000000e+00,1.199954307677e+00,1.047184259805e-02
      20,5.000000000000e+00,1.099832464672e+00,1.919764708101e-02
** ... 88 like lines cut
*ELEMENT, TYPE=C3D20, ELSET=Eall
     1,     1,     2,     3,     4,     5,     6,     7,     8,     9,    10,
          11,    12,    17,    18,    19,    20,    13,    14,    15,    16
     2,     4,     3,    21,    22,     8,     7,    23,    24,    11,    25,
          26,    27,    19,    30,    31,    32,    16,    15,    28,    29
     3,    22,    21,    33,    34,    24,    23,    35,    36,    26,    37,
          38,    39,    31,    42,    43,    44,    29,    28,    40,    41
     4,    34,    33,    45,    46,    36,    35,    47,    48,    38,    49,
          50,    51,    43,    54,    55,    56,    41,    40,    52,    53
     5,    46,    45,    57,    58,    48,    47,    59,    60,    50,    61,
          62,    63,    55,    66,    67,    68,    53,    52,    64,    65
     6,     5,     6,     7,     8,    69,    70,    71,    72,    17,    18,
          19,    20,    77,    78,    79,    80,    73,    74,    75,    76
     7,     8,     7,    23,    24,    72,    71,    81,    82,    19,    30,
          31,    32,    79,    85,    86,    87,    76,    75,    83,    84
     8,    24,    23,    35,    36,    82,    81,    88,    89,    31,    42,
          43,    44,    86,    92,    93,    94,    84,    83,    90,    91
     9,    36,    35,    47,    48,    89,    88,    95,    96,    43,    54,
          55,    56,    93,    99,   100,   101,    91,    90,    97,    98
    10,    48,    47,    59,    60,    96,    95,   102,   103,    55,    66,
          67,    68,   100,   106,   107,   108,    98,    97,   104,   105
*NSET,NSET=Nin 
1, 
2, 
5, 
6, 
9, 
13, 
14, 
17, 
69, 
70, 
73, 
74, 
77, 
*NSET,NSET=Nout 
57, 
58, 
59, 
60, 
62, 
64, 
65, 
67, 
102, 
103, 
104, 
105, 
107, 
*SURFACE,NAME=S1,TYPE=ELEMENT
6,S3
1,S3
*MATERIAL,NAME=EL
*CONDUCTIVITY
8.8541878176e-12
*SOLID SECTION,ELSET=Eall,MATERIAL=EL
*STEP
*HEAT TRANSFER,STEADY STATE
*BOUNDARY
Nin,11,11,2.
Nout,11,11,1.
*SECTION PRINT,SURFACE=S1,NAME=SP1
FLUX
*END STEP
