**
**   Structure: two cubes on top of each other.
**   Test objective: *CHANGE SURFACE BEHAVIOR
**
*NODE, NSET=Nall
       1,  1.00000e+00,  1.00000e+00, -1.49012e-08 
       2,  1.00000e+00,  0.00000e+00, -1.49012e-08 
       3,  1.00000e+00,  0.00000e+00,  1.00000e+00 
       4,  1.00000e+00,  1.00000e+00,  1.00000e+00 
       5, -7.45058e-09,  1.00000e+00, -1.49012e-08 
       6, -7.45058e-09,  0.00000e+00, -1.49012e-08 
       7, -7.45058e-09,  0.00000e+00,  1.00000e+00 
       8, -7.45058e-09,  1.00000e+00,  1.00000e+00 
       9,  5.00000e-01,  6.41421e-01,  1.00000e+00 
      10,  6.41421e-01,  5.00000e-01,  1.00000e+00 
      11,  6.41421e-01,  5.00000e-01,  1.20000e+00 
      12,  5.00000e-01,  6.41421e-01,  1.20000e+00 
      13,  3.58579e-01,  5.00000e-01,  1.00000e+00 
      14,  5.00000e-01,  3.58579e-01,  1.00000e+00 
      15,  5.00000e-01,  3.58579e-01,  1.20000e+00 
      16,  3.58579e-01,  5.00000e-01,  1.20000e+00 
*ELEMENT, TYPE=C3D8, ELSET=Eall
     1,     1,     2,     3,     4,     5,     6,     7,     8
     2,     9,    10,    11,    12,    13,    14,    15,    16
*NSET,NSET=Nfix 
1, 
2, 
5, 
6, 
*NSET,NSET=Ntop
11,12,15,16
*BOUNDARY
Nfix,1,3
Ntop,1,2
*MATERIAL,NAME=EL
*ELASTIC
210000.,.3
*SOLID SECTION,ELSET=Eall,MATERIAL=EL
*ELSET,ELSET=Emast
1
*ELSET,ELSET=Eslav
2
*SURFACE,NAME=Smast
Emast,S5
*SURFACE,NAME=Sslav
Eslav,S3
*CONTACT PAIR,INTERACTION=SI1,TYPE=SURFACE TO SURFACE
Sslav,Smast
*SURFACE INTERACTION,NAME=SI1
*SURFACE BEHAVIOR,PRESSURE-OVERCLOSURE=TIED
1.e9
*FRICTION
.0001,1.E3
**
*STEP,NLGEOM
*STATIC
1.,1.
*BOUNDARY
Ntop,3,3,.1
*NODE FILE,FREQUENCY=1
U
*CONTACT FILE
CDISP,CSTRESS
*END STEP
**
*STEP
*STATIC
1.,1.
*CHANGE SURFACE BEHAVIOR,INTERACTION=SI1
*SURFACE BEHAVIOR,PRESSURE-OVERCLOSURE=LINEAR
1.e9
*END STEP

