**
**   Structure: channel connecting two reservoirs.
**   Test objective: mild slope followed by steep slope
**
*NODE, NSET=Nall
       1,-1.000000000000e-01,0.000000000000e+00,0.000000000000e+00
       2,0.000000000000e+00,0.000000000000e+00,0.000000000000e+00
       3,-5.000000000000e-02,0.000000000000e+00,0.000000000000e+00
       4,1.000000000000e-01,0.000000000000e+00,0.000000000000e+00
       5,5.000000000000e-02,0.000000000000e+00,0.000000000000e+00
       6,3.080000000000e+00,0.000000000000e+00,0.000000000000e+00
       7,1.590000000000e+00,0.000000000000e+00,0.000000000000e+00
       8,6.060000000000e+00,0.000000000000e+00,0.000000000000e+00
       9,4.570000000000e+00,0.000000000000e+00,0.000000000000e+00
      10,9.040000000000e+00,0.000000000000e+00,0.000000000000e+00
      11,7.550000000000e+00,0.000000000000e+00,0.000000000000e+00
      12,1.202000000000e+01,0.000000000000e+00,0.000000000000e+00
      13,1.053000000000e+01,0.000000000000e+00,0.000000000000e+00
      14,1.500000000000e+01,0.000000000000e+00,0.000000000000e+00
      15,1.351000000000e+01,0.000000000000e+00,0.000000000000e+00
      16,1.798000000000e+01,0.000000000000e+00,0.000000000000e+00
      17,1.649000000000e+01,0.000000000000e+00,0.000000000000e+00
      18,2.096000000000e+01,0.000000000000e+00,0.000000000000e+00
      19,1.947000000000e+01,0.000000000000e+00,0.000000000000e+00
      20,2.394000000000e+01,0.000000000000e+00,0.000000000000e+00
** ... 35 like lines cut
*ELEMENT, TYPE=D, ELSET=Eall
     1,      1,3,2
     2,      2,      5,      4
     3,      4,      7,      6
     4,      6,      9,      8
     5,      8,     11,     10
     6,     10,     13,     12
     7,     12,     15,     14
     8,     14,     17,     16
     9,     16,     19,     18
    10,     18,     21,     20
    11,     20,     23,     22
    12,     22,     25,     24
    13,     24,     27,     26
    14,     26,     29,     28
    15,     28,     31,     30
    16,     30,     33,     32
    17,     32,     35,     34
    18,     34,     37,     36
    19,     36,     39,     38
    20,     38,     41,     40
** ... 7 like lines cut
*MATERIAL,NAME=WATER
*DENSITY
1000.
*FLUID CONSTANTS
4217.,1750.E-6,273.
*ELSET,ELSET=E1
26,27
*ELSET,ELSET=E2
1
*ELSET,ELSET=E3
2
*ELSET,ELSET=E4
3,4,5,6,7,8,9,10,11,12
*ELSET,ELSET=E5
13
*ELSET,ELSET=E6
14
*ELSET,ELSET=E7
15,16,17,18,19,20,21,22,23,24
*ELSET,ELSET=E8
25
*FLUID SECTION,ELSET=E1,TYPE=CHANNEL INOUT,MATERIAL=WATER
*FLUID SECTION,ELSET=E2,TYPE=CHANNEL SLUICE GATE,MANNING,MATERIAL=WATER
12.,0.0009,0.95,,2
*FLUID SECTION,ELSET=E3,TYPE=CHANNEL SLUICE OPENING,MANNING,MATERIAL=WATER
12.,0.0009,-0.1,0.,0.02,1
*FLUID SECTION,ELSET=E4,TYPE=CHANNEL STRAIGHT,MANNING,MATERIAL=WATER
12.,0.0009,-29.8,0.,0.02,1
*FLUID SECTION,ELSET=E5,TYPE=CHANNEL DISCONTINUOUS SLOPE,MANNING,MATERIAL=WATER
12.,0.0009,-0.1,0.,0.02,1,,14
,
*FLUID SECTION,ELSET=E6,TYPE=CHANNEL DISCONTINUOUS OPENING,MANNING,MATERIAL=WATER
12.,0.009,-0.1,0.,0.02,13
*FLUID SECTION,ELSET=E7,TYPE=CHANNEL STRAIGHT,MANNING,MATERIAL=WATER
12.,0.009,-29.8,0.,0.02,13
*FLUID SECTION,ELSET=E8,TYPE=CHANNEL RESERVOIR,MANNING,MATERIAL=WATER
12.,0.009,-0.1,0.,0.02,13
*BOUNDARY
50,2,2,1.6
*BOUNDARY,MASS FLOW
55,1,1,50000.
*STEP
*HEAT TRANSFER,STEADY STATE
*DLOAD
EALL,GRAV,9.81,0.,0.,-1.
*NODE PRINT,NSET=NALL
U
*END STEP

