**
**   Structure: cantilever beam subject to point forces.
**   Test objective: C3D10 elements. Stress based refinement.
**
*NODE
         1, 0.1000000000000E+01, 0.2051692149507E-19, 0.1110223024625E-15
         2, 0.0000000000000E+00, 0.2051692149507E-19, 0.1110223024625E-15
         3, 0.1000000000000E+01, 0.1000000000000E+01, 0.1110223024625E-15
         4, 0.5000000000000E+00, 0.0000000000000E+00, 0.0000000000000E+00
         5, 0.5000000000000E+00, 0.5000000000000E+00, 0.0000000000000E+00
         6, 0.1000000000000E+01, 0.5000000000000E+00, 0.0000000000000E+00
         7, 0.0000000000000E+00, 0.1000000000000E+01, 0.1110223024625E-15
         8, 0.0000000000000E+00, 0.5000000000000E+00, 0.0000000000000E+00
         9, 0.5000000000000E+00, 0.1000000000000E+01, 0.0000000000000E+00
        10, 0.1000000000000E+01,-0.2143590000000E+01, 0.8000000000000E+01
        11, 0.1000000000000E+01,-0.1143590000000E+01, 0.8000000000000E+01
        12, 0.5551115123126E-16,-0.2143590000000E+01, 0.8000000000000E+01
        13, 0.1000000000000E+01,-0.1643590000000E+01, 0.8000000000000E+01
        14, 0.5000000000000E+00,-0.1643590000000E+01, 0.8000000000000E+01
        15, 0.5000000000000E+00,-0.2143590000000E+01, 0.8000000000000E+01
        16, 0.5551115123126E-16,-0.1143590000000E+01, 0.8000000000000E+01
        17, 0.5000000000000E+00,-0.1143590000000E+01, 0.8000000000000E+01
        18, 0.0000000000000E+00,-0.1643590000000E+01, 0.8000000000000E+01
        19, 0.1000000000000E+01,-0.1254920000000E+00, 0.2000000000000E+01
        20, 0.1000000000000E+01,-0.3128060000000E-01, 0.1000000000000E+01
** ... 3170 like lines cut
*ELEMENT,TYPE=C3D10,ELSET=TET
         1,       478,       434,       376,       487,      3011,      2700,      2697,      3140,      3010,      2696,
         2,       472,       453,       250,       493,      3074,      2190,      2189,      3129,      3073,      2187,
         3,       306,       348,       508,       607,      2347,      2510,      1383,      2342,      2506,      3177,
         4,       181,       195,       217,       273,      1045,      1601,      1545,       959,      1599,      1801,
         5,       206,       229,       434,       465,      1685,      1960,      1672,      1667,      1956,      3012,
         6,       385,       388,       424,       476,      2763,      2786,      2761,      2760,      2783,      2982,
         7,       149,       225,       230,       281,      1470,      1909,      1469,      1465,      1908,      1975,
         8,       191,       209,       217,       239,      1587,      1706,      1586,      1583,      1705,      1804,
         9,        62,        48,        34,       165,       664,       652,      1444,       854,       663,      1443,
        10,        11,        12,        16,       165,       627,       629,       628,       626,      1426,       752,
        11,        12,        16,       165,       201,       629,       752,      1426,       754,       631,       755,
        12,       371,       366,       317,       451,      2640,      2388,      2387,      2666,      2635,      2383,
        13,       259,       345,       588,       607,      2220,      2483,      1241,      2214,      2482,      3189,
        14,       227,       216,       210,       236,      1796,      1720,      1722,      1932,      1797,      1721,
        15,       235,       418,       465,       493,      2073,      2952,      2067,      2063,      2947,      3109,
        16,       291,       275,       221,       552,       876,      1857,      1856,       919,      1160,      1849,
        17,       470,       394,       226,       596,      2810,      1913,      1912,      3124,      2809,      1910,
        18,        10,        31,       165,       174,       622,      1440,      1425,       749,       750,       751,
        19,       198,       207,       260,       284,      1615,      1689,      1157,       944,      1687,      1065,
        20,        62,        34,        31,       165,      1444,       649,       650,       854,      1443,      1440,
** ... 1829 like lines cut
*NSET,NSET=FIX
1, 
2, 
3, 
4, 
5, 
6, 
7, 
8, 
9, 
75, 
76, 
77, 
78, 
79, 
80, 
81, 
82, 
83, 
84, 
85, 
** ... 140 like lines cut
*SURFACE, NAME=Sfix
303, S1
1096, S1
282, S1
798, S1
648, S1
706, S1
696, S1
812, S1
283, S1
789, S1
1025, S1
920, S1
1117, S1
1361, S1
1179, S1
702, S1
831, S1
828, S1
811, S1
813, S1
** ... 12 like lines cut
*NSET,NSET=LOAD
16,11,10,12,628,629,621,624,627
*BOUNDARY
1,1,2
2,2,2
FIX,3,3
*MATERIAL,NAME=EL
*ELASTIC
210000.,.3
*SOLID SECTION,ELSET=TET,MATERIAL=EL
*STEP
*STATIC
*CLOAD
LOAD,2,1.
*NODE PRINT,NSET=FIX,TOTALS=ONLY
RF
*SECTION PRINT,SURFACE=Sfix,NAME=SP1
SOF,SOM
***NODE FILE
**U
***EL FILE
**S
*END STEP
