**
**   Structure: two cubes on top of each other.
**   Test objective: non-linear sensitivity analysis of
**                   the displacements; asymmetric matrix
**
*NODE, NSET=Nall
       1,1.000000000000e+00,1.000000000000e+00,0.000000000000e+00
       2,1.000000000000e+00,0.000000000000e+00,0.000000000000e+00
       3,1.000000000000e+00,0.000000000000e+00,1.000000000000e+00
       4,1.000000000000e+00,1.000000000000e+00,1.000000000000e+00
       5,0.000000000000e+00,1.000000000000e+00,0.000000000000e+00
       6,0.000000000000e+00,0.000000000000e+00,0.000000000000e+00
       7,0.000000000000e+00,0.000000000000e+00,1.000000000000e+00
       8,0.000000000000e+00,1.000000000000e+00,1.000000000000e+00
       9,1.000000000000e+00,5.000000000000e-01,0.000000000000e+00
      10,1.000000000000e+00,0.000000000000e+00,5.000000000000e-01
      11,1.000000000000e+00,5.000000000000e-01,1.000000000000e+00
      12,1.000000000000e+00,1.000000000000e+00,5.000000000000e-01
      13,5.000000000000e-01,1.000000000000e+00,0.000000000000e+00
      14,5.000000000000e-01,0.000000000000e+00,0.000000000000e+00
      15,5.000000000000e-01,0.000000000000e+00,1.000000000000e+00
      16,5.000000000000e-01,1.000000000000e+00,1.000000000000e+00
      17,0.000000000000e+00,5.000000000000e-01,0.000000000000e+00
      18,0.000000000000e+00,0.000000000000e+00,5.000000000000e-01
      19,0.000000000000e+00,5.000000000000e-01,1.000000000000e+00
      20,0.000000000000e+00,1.000000000000e+00,5.000000000000e-01
** ... 20 like lines cut
*ELEMENT, TYPE=C3D20, ELSET=Eall
     1,     1,     2,     3,     4,     5,     6,     7,     8,     9,    10,
          11,    12,    17,    18,    19,    20,    13,    14,    15,    16
     2,    21,    22,    23,    24,    25,    26,    27,    28,    29,    30,
          31,    32,    37,    38,    39,    40,    33,    34,    35,    36
*NSET,NSET=Nfix 
1, 
2, 
5, 
6, 
9, 
13, 
14, 
17, 
*BOUNDARY
Nfix,1,3
*NSET,NSET=Nfix2 
23, 
24, 
27, 
28, 
31, 
35, 
36, 
39, 
*BOUNDARY
Nfix2,1,2
*NSET,NSET=Nslav
21, 
22, 
25, 
26, 
29, 
33, 
34, 
37, 
*SURFACE,NAME=Sslav
2, S3 
*SURFACE,NAME=Smast
1, S5
*CONTACT PAIR,INTERACTION=SI1,TYPE=SURFACE TO SURFACE
Sslav,Smast
*SURFACE INTERACTION,NAME=SI1
*SURFACE BEHAVIOR,PRESSURE-OVERCLOSURE=LINEAR
1.E7
*FRICTION
.2,1.E5
*ORIENTATION,NAME=OR1,SYSTEM=RECTANGULAR
1.,0.,0.,0.,1.,0.
*MATERIAL,NAME=EL
*ELASTIC,TYPE=ORTHOTROPIC
500000.,157200.,400000.,157200.,157200.,300000.,126200.,126200.,
126200.,294.
*SOLID SECTION,ELSET=Eall,MATERIAL=EL,ORIENTATION=OR1
*DESIGN VARIABLES,TYPE=ORIENTATION
*STEP,NLGEOM
*STATIC
.5,1.
*DLOAD
2, P5, 100.000000 
*BOUNDARY
Nfix2,1,1,.05
*CONTACT FILE,FREQUENCY=100
CDISP,CSTRESS
*END STEP
*STEP
*SENSITIVITY
*OBJECTIVE
DISPLACEMENT
*NODE FILE
SEN
*END STEP
