**
**   Structure: fluid flow between two plates.
**   Test objective: stationary compressible Couette
**                   with fixed wall temperature.
**                   velocity:linear between 0. and 1.
**                   temperature: maximum of 1.125
**                   extremely slanted elements
**                   MODIFIED SMART,SIMPLEC,transient approach
**
*NODE, NSET=Nall
       1,6.000000000000e+00,0.000000000000e+00,0.000000000000e+00
       2,5.400000000000e+00,0.000000000000e+00,0.000000000000e+00
       3,5.400000000000e+00,0.000000000000e+00,1.000000000000e-01
       4,6.000000000000e+00,0.000000000000e+00,1.000000000000e-01
       5,6.300000000000e+00,1.000000000000e-01,0.000000000000e+00
       6,5.700000000000e+00,1.000000000000e-01,0.000000000000e+00
       7,5.700000000000e+00,1.000000000000e-01,1.000000000000e-01
       8,6.300000000000e+00,1.000000000000e-01,1.000000000000e-01
       9,6.600000000000e+00,2.000000000000e-01,0.000000000000e+00
      10,6.000000000000e+00,2.000000000000e-01,0.000000000000e+00
      11,6.000000000000e+00,2.000000000000e-01,1.000000000000e-01
      12,6.600000000000e+00,2.000000000000e-01,1.000000000000e-01
      13,6.900000000000e+00,3.000000000000e-01,0.000000000000e+00
      14,6.300000000000e+00,3.000000000000e-01,0.000000000000e+00
      15,6.300000000000e+00,3.000000000000e-01,1.000000000000e-01
      16,6.900000000000e+00,3.000000000000e-01,1.000000000000e-01
      17,7.200000000000e+00,4.000000000000e-01,0.000000000000e+00
      18,6.600000000000e+00,4.000000000000e-01,0.000000000000e+00
      19,6.600000000000e+00,4.000000000000e-01,1.000000000000e-01
      20,7.200000000000e+00,4.000000000000e-01,1.000000000000e-01
** ... 222 like lines cut
*ELEMENT, TYPE=F3D8R, ELSET=Eall
     1,     1,     2,     3,     4,     5,     6,     7,     8
     2,     5,     6,     7,     8,     9,    10,    11,    12
     3,     9,    10,    11,    12,    13,    14,    15,    16
     4,    13,    14,    15,    16,    17,    18,    19,    20
     5,    17,    18,    19,    20,    21,    22,    23,    24
     6,    21,    22,    23,    24,    25,    26,    27,    28
     7,    25,    26,    27,    28,    29,    30,    31,    32
     8,    29,    30,    31,    32,    33,    34,    35,    36
     9,    33,    34,    35,    36,    37,    38,    39,    40
    10,    37,    38,    39,    40,    41,    42,    43,    44
    11,     2,    45,    46,     3,     6,    47,    48,     7
    12,     6,    47,    48,     7,    10,    49,    50,    11
    13,    10,    49,    50,    11,    14,    51,    52,    15
    14,    14,    51,    52,    15,    18,    53,    54,    19
    15,    18,    53,    54,    19,    22,    55,    56,    23
    16,    22,    55,    56,    23,    26,    57,    58,    27
    17,    26,    57,    58,    27,    30,    59,    60,    31
    18,    30,    59,    60,    31,    34,    61,    62,    35
    19,    34,    61,    62,    35,    38,    63,    64,    39
    20,    38,    63,    64,    39,    42,    65,    66,    43
** ... 80 like lines cut
** Surfaces based on in
*SURFACE, NAME=Sin
91, S4
92, S4
93, S4
94, S4
95, S4
96, S4
97, S4
98, S4
99, S4
100, S4
** Surfaces based on out
*SURFACE, NAME=Sout
1, S6
2, S6
3, S6
4, S6
5, S6
6, S6
7, S6
8, S6
9, S6
10, S6
** Surfaces based on side
*SURFACE, NAME=Sside
1, S3
11, S3
1, S5
11, S5
2, S3
12, S3
2, S5
12, S5
3, S3
13, S3
3, S5
13, S5
4, S3
14, S3
4, S5
14, S5
5, S3
15, S3
5, S5
15, S5
** ... 180 like lines cut
** Surfaces based on up
*SURFACE, NAME=Sup
10, S2
20, S2
30, S2
40, S2
50, S2
60, S2
70, S2
80, S2
90, S2
100, S2
** Surfaces based on do
*SURFACE, NAME=Sdo
1, S1
11, S1
21, S1
31, S1
41, S1
51, S1
61, S1
71, S1
81, S1
91, S1
*MATERIAL,NAME=AIR
*FLUID CONSTANTS
1.,1.
*SPECIFIC GAS CONSTANT
0.285714286
*CONDUCTIVITY
1.
*SOLID SECTION,ELSET=Eall,MATERIAL=AIR
*INITIAL CONDITIONS,TYPE=FLUID VELOCITY
Nall,1,1.
Nall,2,0.
Nall,3,0.
*INITIAL CONDITIONS,TYPE=PRESSURE
Nall,1.
*INITIAL CONDITIONS,TYPE=TEMPERATURE
Nall,1.
*STEP,INCF=100
*CFD,COMPRESSIBLE,SCHEME=MODSMART,SIMPLEC,2D
1.e10,1.e10,,,
*BOUNDARYF
Sin,S,2,3,0.
Sout,S,8,8,1.
Sup,S,2,3,0.
Sup,S,1,1,1.
Sdo,S,1,3,0.
91,S4,1,1,.05
92,S4,1,1,.15
93,S4,1,1,.25
94,S4,1,1,.35
95,S4,1,1,.45
96,S4,1,1,.55
97,S4,1,1,.65
98,S4,1,1,.75
99,S4,1,1,.85
100,S4,1,1,.95
Sin,S,11,11,1.
Sup,S,11,11,1.
Sdo,S,11,11,1.
*MASS FLOW
Sside,M,0.
*NODE PRINT,FREQUENCYF=100,NSET=Nall
VF,PSF,TSF,MACH
*END STEP
