**
**   Structure: two cubes.
**   Test objective: different gravity forces.
**
*NODE, NSET=Nall
       1,  1.00000e+00,  1.00000e+00,  0.00000e+00 
       2,  1.00000e+00,  0.00000e+00,  0.00000e+00 
       3,  1.00000e+00,  0.00000e+00,  1.00000e+00 
       4,  1.00000e+00,  1.00000e+00,  1.00000e+00 
       5,  0.00000e+00,  1.00000e+00,  0.00000e+00 
       6,  0.00000e+00,  0.00000e+00,  0.00000e+00 
       7,  0.00000e+00,  0.00000e+00,  1.00000e+00 
       8,  0.00000e+00,  1.00000e+00,  1.00000e+00 
       9,  1.00000e+00,  5.00000e-01,  0.00000e+00 
      10,  1.00000e+00,  0.00000e+00,  5.00000e-01 
      11,  1.00000e+00,  5.00000e-01,  1.00000e+00 
      12,  1.00000e+00,  1.00000e+00,  5.00000e-01 
      13,  5.00000e-01,  1.00000e+00,  0.00000e+00 
      14,  5.00000e-01,  0.00000e+00,  0.00000e+00 
      15,  5.00000e-01,  0.00000e+00,  1.00000e+00 
      16,  5.00000e-01,  1.00000e+00,  1.00000e+00 
      17,  0.00000e+00,  5.00000e-01,  0.00000e+00 
      18,  0.00000e+00,  0.00000e+00,  5.00000e-01 
      19,  0.00000e+00,  5.00000e-01,  1.00000e+00 
      20,  0.00000e+00,  1.00000e+00,  5.00000e-01 
** ... 20 like lines cut
*ELEMENT, TYPE=C3D20, ELSET=Eall
     1,     1,     2,     3,     4,     5,     6,     7,     8,     9,    10,
          11,    12,    17,    18,    19,    20,    13,    14,    15,    16
     2,    21,    22,    23,    24,    25,    26,    27,    28,    29,    30,
          31,    32,    37,    38,    39,    40,    33,    34,    35,    36
*MATERIAL,NAME=EL
*ELASTIC
210000.,.3
*DENSITY
7.8e-9
*SOLID SECTION,ELSET=Eall,MATERIAL=EL
*ELSET,ELSET=E1
1
*ELSET,ELSET=E2
2
**
*STEP
*DYNAMIC
1.e-4,1.e-2
*DLOAD
1,GRAV,9810.,0.,0.,-1.
2,GRAV,-9810.,0.,0.,-1.
*NODE PRINT,NSET=Nall
U
*EL PRINT,ELSET=Eall
S
*END STEP

