**
**   Structure: dam.
**   Test objective: groundwater flow analysis.
**
*NODE, NSET=Nall
       1, -3.00000e+01, -1.34110e-07,  0.00000e+00 
       2, -3.00000e+01, -4.53062e-01,  0.00000e+00 
       3, -2.45219e+01, -4.53062e-01,  0.00000e+00 
       4, -2.45219e+01, -1.34110e-07,  0.00000e+00 
       5, -3.00000e+01, -2.13446e-01,  0.00000e+00 
       6, -2.71028e+01, -4.53062e-01,  0.00000e+00 
       7, -2.45219e+01, -2.13446e-01,  0.00000e+00 
       8, -2.71028e+01, -1.34110e-07,  0.00000e+00 
       9, -2.01750e+01, -4.53062e-01,  0.00000e+00 
      10, -2.01750e+01, -1.34110e-07,  0.00000e+00 
      11, -2.22229e+01, -4.53062e-01,  0.00000e+00 
      12, -2.01750e+01, -2.13446e-01,  0.00000e+00 
      13, -2.22229e+01, -1.34110e-07,  0.00000e+00 
      14, -1.67256e+01, -4.53062e-01,  0.00000e+00 
      15, -1.67256e+01, -1.34110e-07,  0.00000e+00 
      16, -1.83507e+01, -4.53062e-01,  0.00000e+00 
      17, -1.67256e+01, -2.13446e-01,  0.00000e+00 
      18, -1.83507e+01, -1.34110e-07,  0.00000e+00 
      19, -1.39885e+01, -4.53062e-01,  0.00000e+00 
      20, -1.39885e+01, -1.34110e-07,  0.00000e+00 
** ... 1025 like lines cut
*ELEMENT, TYPE=CPS8, ELSET=Eall
     1,      1,      2,      3,      4,      5,      6,      7,      8
     2,      4,      3,      9,     10,      7,     11,     12,     13
     3,     10,      9,     14,     15,     12,     16,     17,     18
     4,     15,     14,     19,     20,     17,     21,     22,     23
     5,     20,     19,     24,     25,     22,     26,     27,     28
     6,     25,     24,     29,     30,     27,     31,     32,     33
     7,     30,     29,     34,     35,     32,     36,     37,     38
     8,     35,     34,     39,     40,     37,     41,     42,     43
     9,     40,     39,     44,     45,     42,     46,     47,     48
    10,     45,     44,     49,     50,     47,     51,     52,     53
    11,      2,     54,     55,      3,     56,     57,     58,      6
    12,      3,     55,     59,      9,     58,     60,     61,     11
    13,      9,     59,     62,     14,     61,     63,     64,     16
    14,     14,     62,     65,     19,     64,     66,     67,     21
    15,     19,     65,     68,     24,     67,     69,     70,     26
    16,     24,     68,     71,     29,     70,     72,     73,     31
    17,     29,     71,     74,     34,     73,     75,     76,     36
    18,     34,     74,     77,     39,     76,     78,     79,     41
    19,     39,     77,     80,     44,     79,     81,     82,     46
    20,     44,     80,     83,     49,     82,     84,     85,     51
** ... 300 like lines cut
*ELSET,ELSET=Earea1 
1, 
2, 
3, 
4, 
5, 
6, 
7, 
8, 
9, 
10, 
11, 
12, 
13, 
14, 
15, 
16, 
17, 
18, 
19, 
20, 
** ... 140 like lines cut
*ELSET,ELSET=Earea2 
161, 
162, 
163, 
164, 
165, 
166, 
167, 
168, 
169, 
170, 
171, 
172, 
173, 
174, 
175, 
176, 
177, 
178, 
179, 
180, 
** ... 140 like lines cut
*NSET,NSET=Nup 
342, 
345, 
349, 
351, 
354, 
356, 
359, 
361, 
364, 
366, 
369, 
371, 
374, 
376, 
379, 
381, 
384, 
386, 
389, 
391, 
394, 
*NSET,NSET=Ndown 
982, 
985, 
989, 
991, 
994, 
996, 
999, 
1001, 
1004, 
1006, 
1009, 
1011, 
1014, 
1016, 
1019, 
1021, 
1024, 
1026, 
1029, 
1031, 
1034, 
*MATERIAL,NAME=MAT1
*CONDUCTIVITY,TYPE=ORTHO
1.E-2,25.E-4,1.E-4
*MATERIAL,NAME=MAT2
*CONDUCTIVITY,TYPE=ORTHO
1.E-4,4.E-4,1.E-4
*SOLID SECTION,ELSET=Earea1,MATERIAL=MAT1
*SOLID SECTION,ELSET=Earea2,MATERIAL=MAT2
*INITIAL CONDITIONS,TYPE=TEMPERATURE
Nall,0.
**
*STEP
*HEAT TRANSFER,STEADY STATE
*BOUNDARY
Nup,11,11,8.5344
*BOUNDARY
Ndown,11,11,3.9624
*NODE PRINT,NSET=Nall
NT
*END STEP
