**
**   Structure: two disk segments.
**   Test objective: different rotational speeds.
**
*NODE, NSET=Nall
       1,  1.00000e+00,  2.00000e+00,  6.51926e-09 
       2,  1.00000e+00,  1.50000e+00,  6.51926e-09 
       3,  1.00000e+00,  1.49429e+00,  1.30735e-01 
       4,  1.00000e+00,  1.99239e+00,  1.74310e-01 
       5,  5.00000e-01,  2.00000e+00,  6.51926e-09 
       6,  5.00000e-01,  1.50000e+00,  6.51926e-09 
       7,  5.00000e-01,  1.49429e+00,  1.30735e-01 
       8,  5.00000e-01,  1.99239e+00,  1.74310e-01 
       9,  1.00000e+00,  1.75000e+00,  6.51926e-09 
      10,  1.00000e+00,  1.49857e+00,  6.54298e-02 
      11,  1.00000e+00,  1.74334e+00,  1.52523e-01 
      12,  1.00000e+00,  1.99810e+00,  8.72380e-02 
      13,  7.50000e-01,  2.00000e+00,  6.51926e-09 
      14,  7.50000e-01,  1.50000e+00,  6.51926e-09 
      15,  7.50000e-01,  1.49429e+00,  1.30735e-01 
      16,  7.50000e-01,  1.99239e+00,  1.74310e-01 
      17,  5.00000e-01,  1.75000e+00,  6.51926e-09 
      18,  5.00000e-01,  1.49857e+00,  6.54298e-02 
      19,  5.00000e-01,  1.74334e+00,  1.52523e-01 
      20,  5.00000e-01,  1.99810e+00,  8.72380e-02 
** ... 82 like lines cut
*ELEMENT, TYPE=C3D20R, ELSET=Eall
     1,     1,     2,     3,     4,     5,     6,     7,     8,     9,    10,
          11,    12,    17,    18,    19,    20,    13,    14,    15,    16
     2,     2,    21,    22,     3,     6,    23,    24,     7,    25,    26,
          27,    10,    30,    31,    32,    18,    14,    28,    29,    15
     3,     5,     6,     7,     8,    33,    34,    35,    36,    17,    18,
          19,    20,    41,    42,    43,    44,    37,    38,    39,    40
     4,     6,    23,    24,     7,    34,    45,    46,    35,    30,    31,
          32,    18,    49,    50,    51,    42,    38,    47,    48,    39
     5,    52,    53,    54,    55,    56,    57,    58,    59,    60,    61,
          62,    63,    68,    69,    70,    71,    64,    65,    66,    67
     6,    53,    72,    73,    54,    57,    74,    75,    58,    76,    77,
          78,    61,    81,    82,    83,    69,    65,    79,    80,    66
     7,    56,    57,    58,    59,    84,    85,    86,    87,    68,    69,
          70,    71,    92,    93,    94,    95,    88,    89,    90,    91
     8,    57,    74,    75,    58,    85,    96,    97,    86,    81,    82,
          83,    69,   100,   101,   102,    93,    89,    98,    99,    90
*ELSET,ELSET=Ein
1,2,3,4
*ELSET,ELSET=Eout
5,6,7,8
*TRANSFORM,NSET=Nall,TYPE=C
0.,0.,0.,1.,0.,0.
*BOUNDARY
69,2,3
18,2,3
*EQUATION
2
1,1, 1.00000, 4,1,-1.00000 
*EQUATION
2
1,2, 1.00000, 4,2,-1.00000 
*EQUATION
2
1,3, 1.00000, 4,3,-1.00000 
*EQUATION
2
2,1, 1.00000, 3,1,-1.00000 
*EQUATION
2
2,2, 1.00000, 3,2,-1.00000 
*EQUATION
2
2,3, 1.00000, 3,3,-1.00000 
*EQUATION
2
5,1, 1.00000, 8,1,-1.00000 
*EQUATION
2
5,2, 1.00000, 8,2,-1.00000 
*EQUATION
2
5,3, 1.00000, 8,3,-1.00000 
*EQUATION
2
6,1, 1.00000, 7,1,-1.00000 
*EQUATION
2
6,2, 1.00000, 7,2,-1.00000 
*EQUATION
2
6,3, 1.00000, 7,3,-1.00000 
*EQUATION
2
9,1, 1.00000, 11,1,-1.00000 
*EQUATION
2
9,2, 1.00000, 11,2,-1.00000 
*EQUATION
2
9,3, 1.00000, 11,3,-1.00000 
*EQUATION
2
13,1, 1.00000, 16,1,-1.00000 
*EQUATION
2
13,2, 1.00000, 16,2,-1.00000 
*EQUATION
2
13,3, 1.00000, 16,3,-1.00000 
*EQUATION
2
14,1, 1.00000, 15,1,-1.00000 
*EQUATION
2
14,2, 1.00000, 15,2,-1.00000 
*EQUATION
2
14,3, 1.00000, 15,3,-1.00000 
*EQUATION
2
17,1, 1.00000, 19,1,-1.00000 
*EQUATION
2
17,2, 1.00000, 19,2,-1.00000 
*EQUATION
2
17,3, 1.00000, 19,3,-1.00000 
*EQUATION
2
21,1, 1.00000, 22,1,-1.00000 
*EQUATION
2
21,2, 1.00000, 22,2,-1.00000 
*EQUATION
2
21,3, 1.00000, 22,3,-1.00000 
*EQUATION
2
23,1, 1.00000, 24,1,-1.00000 
*EQUATION
2
23,2, 1.00000, 24,2,-1.00000 
*EQUATION
2
23,3, 1.00000, 24,3,-1.00000 
*EQUATION
2
25,1, 1.00000, 27,1,-1.00000 
*EQUATION
2
25,2, 1.00000, 27,2,-1.00000 
*EQUATION
2
25,3, 1.00000, 27,3,-1.00000 
*EQUATION
2
28,1, 1.00000, 29,1,-1.00000 
*EQUATION
2
28,2, 1.00000, 29,2,-1.00000 
*EQUATION
2
28,3, 1.00000, 29,3,-1.00000 
*EQUATION
2
30,1, 1.00000, 32,1,-1.00000 
*EQUATION
2
30,2, 1.00000, 32,2,-1.00000 
*EQUATION
2
30,3, 1.00000, 32,3,-1.00000 
*EQUATION
2
33,1, 1.00000, 36,1,-1.00000 
*EQUATION
2
33,2, 1.00000, 36,2,-1.00000 
*EQUATION
2
33,3, 1.00000, 36,3,-1.00000 
*EQUATION
2
34,1, 1.00000, 35,1,-1.00000 
*EQUATION
2
34,2, 1.00000, 35,2,-1.00000 
*EQUATION
2
34,3, 1.00000, 35,3,-1.00000 
*EQUATION
2
37,1, 1.00000, 40,1,-1.00000 
*EQUATION
2
37,2, 1.00000, 40,2,-1.00000 
*EQUATION
2
37,3, 1.00000, 40,3,-1.00000 
*EQUATION
2
38,1, 1.00000, 39,1,-1.00000 
*EQUATION
2
38,2, 1.00000, 39,2,-1.00000 
*EQUATION
2
38,3, 1.00000, 39,3,-1.00000 
*EQUATION
2
41,1, 1.00000, 43,1,-1.00000 
*EQUATION
2
41,2, 1.00000, 43,2,-1.00000 
*EQUATION
2
41,3, 1.00000, 43,3,-1.00000 
*EQUATION
2
45,1, 1.00000, 46,1,-1.00000 
*EQUATION
2
45,2, 1.00000, 46,2,-1.00000 
*EQUATION
2
45,3, 1.00000, 46,3,-1.00000 
*EQUATION
2
47,1, 1.00000, 48,1,-1.00000 
*EQUATION
2
47,2, 1.00000, 48,2,-1.00000 
*EQUATION
2
47,3, 1.00000, 48,3,-1.00000 
*EQUATION
2
49,1, 1.00000, 51,1,-1.00000 
*EQUATION
2
49,2, 1.00000, 51,2,-1.00000 
*EQUATION
2
49,3, 1.00000, 51,3,-1.00000 
*EQUATION
2
52,1, 1.00000, 55,1,-1.00000 
*EQUATION
2
52,2, 1.00000, 55,2,-1.00000 
*EQUATION
2
52,3, 1.00000, 55,3,-1.00000 
*EQUATION
2
53,1, 1.00000, 54,1,-1.00000 
*EQUATION
2
53,2, 1.00000, 54,2,-1.00000 
*EQUATION
2
53,3, 1.00000, 54,3,-1.00000 
*EQUATION
2
56,1, 1.00000, 59,1,-1.00000 
*EQUATION
2
56,2, 1.00000, 59,2,-1.00000 
*EQUATION
2
56,3, 1.00000, 59,3,-1.00000 
*EQUATION
2
57,1, 1.00000, 58,1,-1.00000 
*EQUATION
2
57,2, 1.00000, 58,2,-1.00000 
*EQUATION
2
57,3, 1.00000, 58,3,-1.00000 
*EQUATION
2
60,1, 1.00000, 62,1,-1.00000 
*EQUATION
2
60,2, 1.00000, 62,2,-1.00000 
*EQUATION
2
60,3, 1.00000, 62,3,-1.00000 
*EQUATION
2
64,1, 1.00000, 67,1,-1.00000 
*EQUATION
2
64,2, 1.00000, 67,2,-1.00000 
*EQUATION
2
64,3, 1.00000, 67,3,-1.00000 
*EQUATION
2
65,1, 1.00000, 66,1,-1.00000 
*EQUATION
2
65,2, 1.00000, 66,2,-1.00000 
*EQUATION
2
65,3, 1.00000, 66,3,-1.00000 
*EQUATION
2
68,1, 1.00000, 70,1,-1.00000 
*EQUATION
2
68,2, 1.00000, 70,2,-1.00000 
*EQUATION
2
68,3, 1.00000, 70,3,-1.00000 
*EQUATION
2
72,1, 1.00000, 73,1,-1.00000 
*EQUATION
2
72,2, 1.00000, 73,2,-1.00000 
*EQUATION
2
72,3, 1.00000, 73,3,-1.00000 
*EQUATION
2
74,1, 1.00000, 75,1,-1.00000 
*EQUATION
2
74,2, 1.00000, 75,2,-1.00000 
*EQUATION
2
74,3, 1.00000, 75,3,-1.00000 
*EQUATION
2
76,1, 1.00000, 78,1,-1.00000 
*EQUATION
2
76,2, 1.00000, 78,2,-1.00000 
*EQUATION
2
76,3, 1.00000, 78,3,-1.00000 
*EQUATION
2
79,1, 1.00000, 80,1,-1.00000 
*EQUATION
2
79,2, 1.00000, 80,2,-1.00000 
*EQUATION
2
79,3, 1.00000, 80,3,-1.00000 
*EQUATION
2
81,1, 1.00000, 83,1,-1.00000 
*EQUATION
2
81,2, 1.00000, 83,2,-1.00000 
*EQUATION
2
81,3, 1.00000, 83,3,-1.00000 
*EQUATION
2
84,1, 1.00000, 87,1,-1.00000 
*EQUATION
2
84,2, 1.00000, 87,2,-1.00000 
*EQUATION
2
84,3, 1.00000, 87,3,-1.00000 
*EQUATION
2
85,1, 1.00000, 86,1,-1.00000 
*EQUATION
2
85,2, 1.00000, 86,2,-1.00000 
*EQUATION
2
85,3, 1.00000, 86,3,-1.00000 
*EQUATION
2
88,1, 1.00000, 91,1,-1.00000 
*EQUATION
2
88,2, 1.00000, 91,2,-1.00000 
*EQUATION
2
88,3, 1.00000, 91,3,-1.00000 
*EQUATION
2
89,1, 1.00000, 90,1,-1.00000 
*EQUATION
2
89,2, 1.00000, 90,2,-1.00000 
*EQUATION
2
89,3, 1.00000, 90,3,-1.00000 
*EQUATION
2
92,1, 1.00000, 94,1,-1.00000 
*EQUATION
2
92,2, 1.00000, 94,2,-1.00000 
*EQUATION
2
92,3, 1.00000, 94,3,-1.00000 
*EQUATION
2
96,1, 1.00000, 97,1,-1.00000 
*EQUATION
2
96,2, 1.00000, 97,2,-1.00000 
*EQUATION
2
96,3, 1.00000, 97,3,-1.00000 
*EQUATION
2
98,1, 1.00000, 99,1,-1.00000 
*EQUATION
2
98,2, 1.00000, 99,2,-1.00000 
*EQUATION
2
98,3, 1.00000, 99,3,-1.00000 
*EQUATION
2
100,1, 1.00000, 102,1,-1.00000 
*EQUATION
2
100,2, 1.00000, 102,2,-1.00000 
*EQUATION
2
100,3, 1.00000, 102,3,-1.00000 
*MATERIAL,NAME=EL
*ELASTIC
210000.,.3
*DENSITY
7.8E-9
*SOLID SECTION,ELSET=Eall,MATERIAL=EL
**
*STEP
*STATIC
*DLOAD
Ein,CENTRIF,1.E6,0.,0.,0.,1.,0.,0.
Eout,CENTRIF,2.E6,0.,0.,0.,1.,0.,0.
*NODE PRINT,NSET=Nall
U
*EL PRINT,ELSET=Eall
S
*END STEP

