**
**   Structure: cantilever plate.
**   Test objective: C3D8I elements (frequencies).
**                   cf. example dloadlin20f.inp for a
**                   comparison with c3d20
**
*NODE, NSET=nall
1, 0.000e+00, 3.000e+01, 0.000e+00
2, 0.000e+00, 0.000e+00, 0.000e+00
3, 2.000e+01, 0.000e+00, 0.000e+00
4, 2.000e+01, 3.000e+01, 0.000e+00
5, 0.000e+00, 3.000e+01, 1.000e+00
6, 0.000e+00, 0.000e+00, 1.000e+00
7, 2.000e+01, 0.000e+00, 1.000e+00
8, 2.000e+01, 3.000e+01, 1.000e+00
9, 0.000e+00, 1.500e+01, 0.000e+00
10, 1.000e+01, 0.000e+00, 0.000e+00
11, 2.000e+01, 1.500e+01, 0.000e+00
12, 1.000e+01, 3.000e+01, 0.000e+00
13, 0.000e+00, 3.000e+01, 5.000e-01
14, 0.000e+00, 0.000e+00, 5.000e-01
15, 2.000e+01, 0.000e+00, 5.000e-01
16, 2.000e+01, 3.000e+01, 5.000e-01
17, 0.000e+00, 1.500e+01, 1.000e+00
18, 1.000e+01, 0.000e+00, 1.000e+00
19, 2.000e+01, 1.500e+01, 1.000e+00
20, 1.000e+01, 3.000e+01, 1.000e+00
** ... 168 like lines cut
*ELEMENT, TYPE=C3D8I, ELSET=elall
1, 1, 2, 3, 4, 5, 6, 7, 8, 9, 10, 
2, 4, 3, 21, 22, 8, 7, 23, 24, 11, 25, 
3, 22, 21, 33, 34, 24, 23, 35, 36, 26, 37, 
4, 34, 33, 45, 46, 36, 35, 47, 48, 38, 49, 
5, 46, 45, 57, 58, 48, 47, 59, 60, 50, 61, 
6, 58, 57, 69, 70, 60, 59, 71, 72, 62, 73, 
7, 70, 69, 81, 82, 72, 71, 83, 84, 74, 85, 
8, 82, 81, 93, 94, 84, 83, 95, 96, 86, 97, 
9, 94, 93, 105, 106, 96, 95, 107, 108, 98, 109, 
10, 106, 105, 117, 118, 108, 107, 119, 120, 110, 121, 
11, 118, 117, 129, 130, 120, 119, 131, 132, 122, 133, 
12, 130, 129, 141, 142, 132, 131, 143, 144, 134, 145, 
13, 142, 141, 153, 154, 144, 143, 155, 156, 146, 157, 
14, 154, 153, 165, 166, 156, 155, 167, 168, 158, 169, 
15, 166, 165, 177, 178, 168, 167, 179, 180, 170, 181, 
*solid section, elset=elall, material=steel
*NSET,NSET=left 
1, 2, 5, 6
*nset, nset=right
180, 183, 185, 188
*material, name=steel
*elastic, type=iso
209000.0, 0.3000,
*density
7.85e-09
*boundary
left, 1,3
*step, inc=10000
*frequency
10
*node print, nset=left
rf
*end step
