**
**   Structure: cantilever plate.
**   Test objective: C3D20R elements (frequencies).
**                   cf. example dloadlinIf.inp
**
*NODE, NSET=Nall
       1,0.000000000000e+00,3.000000000000e+01,0.000000000000e+00
       2,0.000000000000e+00,0.000000000000e+00,0.000000000000e+00
       3,2.000000000000e+01,0.000000000000e+00,0.000000000000e+00
       4,2.000000000000e+01,3.000000000000e+01,0.000000000000e+00
       5,0.000000000000e+00,3.000000000000e+01,1.000000000000e+00
       6,0.000000000000e+00,0.000000000000e+00,1.000000000000e+00
       7,2.000000000000e+01,0.000000000000e+00,1.000000000000e+00
       8,2.000000000000e+01,3.000000000000e+01,1.000000000000e+00
       9,0.000000000000e+00,1.500000000000e+01,0.000000000000e+00
      10,1.000000000000e+01,0.000000000000e+00,0.000000000000e+00
      11,2.000000000000e+01,1.500000000000e+01,0.000000000000e+00
      12,1.000000000000e+01,3.000000000000e+01,0.000000000000e+00
      13,0.000000000000e+00,3.000000000000e+01,5.000000000000e-01
      14,0.000000000000e+00,0.000000000000e+00,5.000000000000e-01
      15,2.000000000000e+01,0.000000000000e+00,5.000000000000e-01
      16,2.000000000000e+01,3.000000000000e+01,5.000000000000e-01
      17,0.000000000000e+00,1.500000000000e+01,1.000000000000e+00
      18,1.000000000000e+01,0.000000000000e+00,1.000000000000e+00
      19,2.000000000000e+01,1.500000000000e+01,1.000000000000e+00
      20,1.000000000000e+01,3.000000000000e+01,1.000000000000e+00
** ... 168 like lines cut
*ELEMENT, TYPE=C3D20, ELSET=Eall
     1,     1,     2,     3,     4,     5,     6,     7,     8,     9,    10,
          11,    12,    17,    18,    19,    20,    13,    14,    15,    16
     2,     4,     3,    21,    22,     8,     7,    23,    24,    11,    25,
          26,    27,    19,    30,    31,    32,    16,    15,    28,    29
     3,    22,    21,    33,    34,    24,    23,    35,    36,    26,    37,
          38,    39,    31,    42,    43,    44,    29,    28,    40,    41
     4,    34,    33,    45,    46,    36,    35,    47,    48,    38,    49,
          50,    51,    43,    54,    55,    56,    41,    40,    52,    53
     5,    46,    45,    57,    58,    48,    47,    59,    60,    50,    61,
          62,    63,    55,    66,    67,    68,    53,    52,    64,    65
     6,    58,    57,    69,    70,    60,    59,    71,    72,    62,    73,
          74,    75,    67,    78,    79,    80,    65,    64,    76,    77
     7,    70,    69,    81,    82,    72,    71,    83,    84,    74,    85,
          86,    87,    79,    90,    91,    92,    77,    76,    88,    89
     8,    82,    81,    93,    94,    84,    83,    95,    96,    86,    97,
          98,    99,    91,   102,   103,   104,    89,    88,   100,   101
     9,    94,    93,   105,   106,    96,    95,   107,   108,    98,   109,
         110,   111,   103,   114,   115,   116,   101,   100,   112,   113
    10,   106,   105,   117,   118,   108,   107,   119,   120,   110,   121,
         122,   123,   115,   126,   127,   128,   113,   112,   124,   125
** ... 10 like lines cut
*solid section, elset=Eall, material=steel
*NSET,NSET=left 
1, 2, 5, 6,9,13,14,17
*material, name=steel
*elastic, type=iso
209000.0, 0.3000,
*density
7.85e-09
*boundary
left, 1,3
*step
*frequency
10
*end step
