**
**   Structure: plate in between 4 springs
**   Test objective: S8 elements, nodal forces on shells
**
*HEADING
Stability is developed by ESP Composites, LLC
*NODE, NSET=ALL
1,0,0
2,0.333333333333333,0
3,0.666666666666667,0
4,1,0
5,1.33333333333333,0
6,1.66666666666667,0
7,2,0
8,2.33333333333333,0
9,2.66666666666667,0
10,3,0
11,3.33333333333333,0
12,3.66666666666667,0
13,4,0
14,4.33333333333333,0
15,4.66666666666667,0
16,5,0
17,5.33333333333333,0
18,5.66666666666667,0
19,6,0
20,6.33333333333333,0
** ... 724 like lines cut
*ELEMENT, TYPE=S8, ELSET=PLATE 
1,1,3,203,201,2,103,202,101
2,3,5,205,203,4,105,204,103
3,5,7,207,205,6,107,206,105
4,7,9,209,207,8,109,208,107
5,9,11,211,209,10,111,210,109
6,11,13,213,211,12,113,212,111
7,13,15,215,213,14,115,214,113
8,15,17,217,215,16,117,216,115
9,17,19,219,217,18,119,218,117
10,19,21,221,219,20,121,220,119
11,21,23,223,221,22,123,222,121
12,23,25,225,223,24,125,224,123
13,25,27,227,225,26,127,226,125
14,27,29,229,227,28,129,228,127
15,29,31,231,229,30,131,230,129
101,201,203,403,401,202,303,402,301
102,203,205,405,403,204,305,404,303
103,205,207,407,405,206,307,406,305
104,207,209,409,407,208,309,408,307
105,209,211,411,409,210,311,410,309
** ... 205 like lines cut
*ELEMENT, TYPE=SPRINGA, ELSET=SPRING
10001,10001,2829
10002,10002,2829
10003,10003,2803
10004,10004,2803
10005,10005,203
10006,10006,203
10007,10007,229
10008,10008,229
*NSET, NSET=BOTTOM, GENERATE
1,31,1
*NSET, NSET=RIGHT
31
131
231
331
431
531
631
731
831
931
1031
1131
1231
1331
1431
1531
1631
1731
1831
1931
** ... 11 like lines cut
*NSET, NSET=TOP, GENERATE
3001,3031,1
*NSET, NSET=LEFT
1
101
201
301
401
501
601
701
801
901
1001
1101
1201
1301
1401
1501
1601
1701
1801
1901
** ... 11 like lines cut
*BOUNDARY
ALL,3
*BOUNDARY
10001,1,3
10002,1,3
10003,1,3
10004,1,3
10005,1,3
10006,1,3
10007,1,3
10008,1,3
*SHELL SECTION, ELSET=PLATE, MATERIAL=A
0.5
*SPRING, ELSET=SPRING
100.0000
*MATERIAL, NAME=A
*ELASTIC, TYPE=ISO
10e6, .3
*NSET, NSET=MIDBOT, GENERATE
2,30,2
*NSET, NSET=MIDTOP, GENERATE
3002,3030,2
*NSET, NSET=END_BOT, GENERATE
1,31,2
*NSET, NSET=END_TOP, GENERATE
3001,3031,2
*STEP
*STATIC
*CLOAD
MIDBOT,2,-2
MIDTOP,2,2
END_BOT,2,-1
END_TOP,2,1
*CLOAD
1,2,.5
31,2,.5
3031,2,-.5
3001,2,-.5
*NODE PRINT,NSET=MIDBOT
U
*NODE PRINT,NSET=END_BOT
U
*EL PRINT,ELSET=PLATE
S
*END STEP
