**
**   Structure: two cubes on top of each other
**   Test objective: removal of some MPC's in the second step
**                   selection of single nodes
**
*NODE, NSET=Nall
       1,1.000000000000e+00,1.000000000000e+00,-1.490120005165e-08
       2,1.000000000000e+00,0.000000000000e+00,-1.490120005165e-08
       3,1.000000000000e+00,0.000000000000e+00,1.000000000000e+00
       4,1.000000000000e+00,1.000000000000e+00,1.000000000000e+00
       5,-7.450579986301e-09,1.000000000000e+00,-1.490120005165e-08
       6,-7.450579986301e-09,0.000000000000e+00,-1.490120005165e-08
       7,-7.450579986301e-09,0.000000000000e+00,1.000000000000e+00
       8,-7.450579986301e-09,1.000000000000e+00,1.000000000000e+00
       9,5.000000000000e-01,6.414210000000e-01,1.000000000000e+00
      10,6.414210000000e-01,5.000000000000e-01,1.000000000000e+00
      11,6.414210000000e-01,5.000000000000e-01,1.200000000000e+00
      12,5.000000000000e-01,6.414210000000e-01,1.200000000000e+00
      13,3.585790000000e-01,5.000000000000e-01,1.000000000000e+00
      14,5.000000000000e-01,3.585790000000e-01,1.000000000000e+00
      15,5.000000000000e-01,3.585790000000e-01,1.200000000000e+00
      16,3.585790000000e-01,5.000000000000e-01,1.200000000000e+00
*ELEMENT, TYPE=C3D8, ELSET=Eall
     1,     1,     2,     3,     4,     5,     6,     7,     8
     2,     9,    10,    11,    12,    13,    14,    15,    16
*EQUATION
5
9,3,-1.000000000000
3,3,0.179289489250
4,3,0.320710510750
8,3,0.320710510750
7,3,0.179289489250
*EQUATION
5
10,3,-1.000000000000
3,3,0.320710510750
4,3,0.320710510750
8,3,0.179289489250
7,3,0.179289489250
*EQUATION
5
13,3,-1.000000000000
3,3,0.179289514250
4,3,0.179289514250
8,3,0.320710485750
7,3,0.320710485750
*EQUATION
5
14,3,-1.000000000000
3,3,0.320710510750
4,3,0.179289489250
8,3,0.179289489250
7,3,0.320710510750
*NSET,NSET=Nfix 
1, 
2, 
5, 
6, 
*BOUNDARY
Nfix,3,3
6,1,2
2,2,2
13,1,2
10,2,2
*MATERIAL,NAME=EL
*ELASTIC
210000.,.3
*DENSITY
7.8E-9
*SOLID SECTION,ELSET=Eall,MATERIAL=EL
*NSET,NSET=N1
9,10
*NSET,NSET=N2
11
*STEP
*DYNAMIC,DIRECT
1.E-8,2.E-7
*DLOAD
2, P5, -1.000000
*NODE PRINT,NSET=N2
U
*END STEP
*STEP
*DYNAMIC,DIRECT
1.E-8,2.E-7
*EQUATION,REMOVE
9,3
10,3
*NODE PRINT,NSET=N2
U
*END STEP
