**
**   Structure: cantilever beam
**   Test objective: removal of some MPC's in the second step
**                   decascaded MPC's
**
*NODE, NSET=Nall
       1,-5.000000000000e-03,-2.500000000000e-01,0.000000000000e+00
       2,-5.000000000000e-03,2.500000000000e-01,0.000000000000e+00
       3,5.000000000000e-03,-2.500000000000e-01,0.000000000000e+00
       4,5.000000000000e-03,2.500000000000e-01,0.000000000000e+00
       5,-5.000000000000e-03,-2.352941000000e-01,0.000000000000e+00
       6,-5.000000000000e-03,-2.205882000000e-01,0.000000000000e+00
       7,-5.000000000000e-03,-2.058824000000e-01,0.000000000000e+00
       8,-5.000000000000e-03,-1.911765000000e-01,0.000000000000e+00
       9,-5.000000000000e-03,-1.764706000000e-01,0.000000000000e+00
      10,-5.000000000000e-03,-1.617647000000e-01,0.000000000000e+00
      11,-5.000000000000e-03,-1.470588000000e-01,0.000000000000e+00
      12,-5.000000000000e-03,-1.323529000000e-01,0.000000000000e+00
      13,-5.000000000000e-03,-1.176471000000e-01,0.000000000000e+00
      14,-5.000000000000e-03,-1.029412000000e-01,0.000000000000e+00
      15,-5.000000000000e-03,-8.823529000000e-02,0.000000000000e+00
      16,-5.000000000000e-03,-7.352941000000e-02,0.000000000000e+00
      17,-5.000000000000e-03,-5.882353000000e-02,0.000000000000e+00
      18,-5.000000000000e-03,-4.411765000000e-02,0.000000000000e+00
      19,-5.000000000000e-03,-2.941176000000e-02,0.000000000000e+00
      20,-5.000000000000e-03,-1.470588000000e-02,0.000000000000e+00
** ... 153 like lines cut
*ELEMENT, TYPE=S8, ELSET=Eall
    71,      2,      4,     70,     37,    140,    139,    141,    104
    72,     37,     70,     69,     36,    141,    138,    142,    103
    73,     36,     69,     68,     35,    142,    137,    143,    102
    74,     35,     68,     67,     34,    143,    136,    144,    101
    75,     34,     67,     66,     33,    144,    135,    145,    100
    76,     33,     66,     65,     32,    145,    134,    146,     99
    77,     32,     65,     64,     31,    146,    133,    147,     98
    78,     31,     64,     63,     30,    147,    132,    148,     97
    79,     30,     63,     62,     29,    148,    131,    149,     96
    80,     29,     62,     61,     28,    149,    130,    150,     95
    81,     28,     61,     60,     27,    150,    129,    151,     94
    82,     27,     60,     59,     26,    151,    128,    152,     93
    83,     26,     59,     58,     25,    152,    127,    153,     92
    84,     25,     58,     57,     24,    153,    126,    154,     91
    85,     24,     57,     56,     23,    154,    125,    155,     90
    86,     23,     56,     55,     22,    155,    124,    156,     89
    87,     22,     55,     54,     21,    156,    123,    157,     88
    88,     21,     54,     53,     20,    157,    122,    158,     87
    89,     20,     53,     52,     19,    158,    121,    159,     86
    90,     19,     52,     51,     18,    159,    120,    160,     85
** ... 14 like lines cut
** Names based on fix
*NSET,NSET=fix 
1, 
3, 
105, 
** Names based on S8R
*ELSET,ELSET=S8R 
71, 
72, 
73, 
74, 
75, 
76, 
77, 
78, 
79, 
80, 
81, 
82, 
83, 
84, 
85, 
86, 
87, 
88, 
89, 
90, 
** ... 14 like lines cut
** Surfaces based on all
*SURFACE, NAME=all
104, SPOS 
71, SPOS 
103, SPOS 
102, SPOS 
101, SPOS 
100, SPOS 
99, SPOS 
98, SPOS 
97, SPOS 
96, SPOS 
95, SPOS 
94, SPOS 
93, SPOS 
92, SPOS 
91, SPOS 
90, SPOS 
89, SPOS 
88, SPOS 
87, SPOS 
86, SPOS 
** ... 14 like lines cut
*NODE,NSET=sup
202,-5.000000000000e-03,2.500000000000e-01,0.000000000000e+00
204,5.000000000000e-03,2.500000000000e-01,0.000000000000e+00
*MATERIAL,NAME=steel
*ELASTIC
2.0000E+11,0.28
*DENSITY
7.8500E+03
*EXPANSION
1.3000E-05
*SHELL SECTION,MATERIAL=steel,ELSET=Eall,,OFFSET=0.0000E+00
1.0000E-02
*nset,nset=n1
2,4
*BOUNDARY
fix,1,4,0
Sup,3,3,-0.05
*EQUATION
2
2,3,1
202,3,-1
*EQUATION
2
4,3,1
204,3,-1
*STEP
*STATIC
*DLOAD
Eall,GRAV,9.8100E+00,0,0,-1
*NODE FILE 
U,
*EL FILE
ENER
*END STEP
*STEP,INC=1000
*DYNAMIC
0.001,.02
*BOUNDARY,OP=NEW
fix,1,4,0
*EQUATION,REMOVE
2,3
4,3
*NODE FILE,FREQUENCY=100
U
*EL FILE
*END STEP
