**
**   Structure: disk segment
**   Test objective: cyclic symmetry for a structure containing the
**                   axis of cyclic symmetry for nodal diameter 1
**   The first two eigenfrequencies of nodal diameter 0
**   and the first two eigenvalues of nodal diameter 1
**   correspond to rigid body modes. They are small compared to
**   the other eigenfrequencies, however, their values
**   highly depend on the computer system
**                   
*NODE, NSET=Nall
       1,  1.86265e-09,  9.65573e-01,  2.60134e-01 
       2,  1.86265e-09,  9.80586e-01,  1.96092e-01 
       3,  5.00000e-02,  9.80586e-01,  1.96092e-01 
       4,  5.00000e-02,  9.65573e-01,  2.60134e-01 
       5, -8.19564e-08,  9.07479e-01,  2.45329e-01 
       6, -5.86733e-08,  9.17553e-01,  1.84823e-01 
       7,  4.99999e-02,  9.17553e-01,  1.84823e-01 
       8,  4.99999e-02,  9.07479e-01,  2.45329e-01 
       9,  1.86265e-09,  9.73606e-01,  2.28236e-01 
      10,  2.50000e-02,  9.80586e-01,  1.96092e-01 
      11,  5.00000e-02,  9.73606e-01,  2.28236e-01 
      12,  2.50000e-02,  9.65573e-01,  2.60134e-01 
      13, -4.00469e-08,  9.36526e-01,  2.52732e-01 
      14, -3.07336e-08,  9.49069e-01,  1.90457e-01 
      15,  5.00000e-02,  9.49069e-01,  1.90457e-01 
      16,  5.00000e-02,  9.36526e-01,  2.52732e-01 
      17, -7.26432e-08,  9.12955e-01,  2.15179e-01 
      18,  2.49999e-02,  9.17553e-01,  1.84823e-01 
      19,  4.99999e-02,  9.12955e-01,  2.15179e-01 
      20,  2.49999e-02,  9.07479e-01,  2.45329e-01 
** ... 993 like lines cut
*ELEMENT, TYPE=C3D20, ELSET=Eall
     1,     1,     2,     3,     4,     5,     6,     7,     8,     9,    10,
          11,    12,    17,    18,    19,    20,    13,    14,    15,    16
     2,     2,    21,    22,     3,     6,    23,    24,     7,    25,    26,
          27,    10,    30,    31,    32,    18,    14,    28,    29,    15
     3,    21,    33,    34,    22,    23,    35,    36,    24,    37,    38,
          39,    26,    42,    43,    44,    31,    28,    40,    41,    29
     4,    33,    45,    46,    34,    35,    47,    48,    36,    49,    50,
          51,    38,    54,    55,    56,    43,    40,    52,    53,    41
     5,     5,     6,     7,     8,    57,    58,    59,    60,    17,    18,
          19,    20,    65,    66,    67,    68,    61,    62,    63,    64
     6,     6,    23,    24,     7,    58,    69,    70,    59,    30,    31,
          32,    18,    73,    74,    75,    66,    62,    71,    72,    63
     7,    23,    35,    36,    24,    69,    76,    77,    70,    42,    43,
          44,    31,    80,    81,    82,    74,    71,    78,    79,    72
     8,    35,    47,    48,    36,    76,    83,    84,    77,    54,    55,
          56,    43,    87,    88,    89,    81,    78,    85,    86,    79
     9,    57,    58,    59,    60,    90,    91,    92,    93,    65,    66,
          67,    68,    98,    99,   100,   101,    94,    95,    96,    97
    10,    58,    69,    70,    59,    91,   102,   103,    92,    73,    74,
          75,    66,   106,   107,   108,    99,    95,   104,   105,    96
** ... 300 like lines cut
*MATERIAL,NAME=EL
*ELASTIC
210000.,.3
*DENSITY
7.8E-9
*SOLID SECTION,ELSET=Eall,MATERIAL=EL
*NSET,NSET=Nleft 
916, 
45, 
215, 
248, 
346, 
707, 
52, 
47, 
85, 
83, 
118, 
116, 
151, 
149, 
184, 
182, 
217, 
1013, 
1006, 
1009, 
** ... 81 like lines cut
*NSET,NSET=Nright 
916, 
350, 
510, 
707, 
539, 
631, 
362, 
354, 
402, 
398, 
430, 
426, 
458, 
454, 
486, 
482, 
514, 
886, 
881, 
893, 
** ... 81 like lines cut
*SURFACE,NAME=left,TYPE=NODE
Nleft
*SURFACE,NAME=right,TYPE=NODE
Nright
*TIE,CYCLIC SYMMETRY,POSITION TOLERANCE=1.,NAME=T1
left,right
*CYCLIC SYMMETRY MODEL,N=12,NGRAPH=1
0.,0.,0.,1.,0.,0.
*STEP
*FREQUENCY
10
*SELECT CYCLIC SYMMETRY MODES,NMIN=0,NMAX=0
*END STEP
*STEP
*FREQUENCY
10
*SELECT CYCLIC SYMMETRY MODES,NMIN=1,NMAX=1
*END STEP
*STEP
*FREQUENCY
10
*SELECT CYCLIC SYMMETRY MODES,NMIN=2,NMAX=2
*END STEP
