**
**   Structure: furnace.
**   Test objective: shell elements with convection and radiation.
**
*NODE, NSET=Nall
       1,  3.00000e-01,  3.72529e-09,  3.72529e-09 
       2,  2.40000e-01,  3.72529e-09,  3.72529e-09 
       3,  3.00000e-01,  6.00000e-02,  3.72529e-09 
       4,  2.70000e-01,  3.72529e-09,  3.72529e-09 
       5,  2.70000e-01,  3.00000e-02,  3.72529e-09 
       6,  3.00000e-01,  3.00000e-02,  3.72529e-09 
       7,  2.40000e-01,  6.00000e-02,  3.72529e-09 
       8,  2.40000e-01,  3.00000e-02,  3.72529e-09 
       9,  2.70000e-01,  6.00000e-02,  3.72529e-09 
      10,  3.00000e-01,  1.20000e-01,  3.72529e-09 
      11,  2.70000e-01,  9.00000e-02,  3.72529e-09 
      12,  3.00000e-01,  9.00000e-02,  3.72529e-09 
      13,  2.40000e-01,  1.20000e-01,  3.72529e-09 
      14,  2.40000e-01,  9.00000e-02,  3.72529e-09 
      15,  2.70000e-01,  1.20000e-01,  3.72529e-09 
      16,  3.00000e-01,  1.80000e-01,  3.72529e-09 
      17,  2.70000e-01,  1.50000e-01,  3.72529e-09 
      18,  3.00000e-01,  1.50000e-01,  3.72529e-09 
      19,  2.40000e-01,  1.80000e-01,  3.72529e-09 
      20,  2.40000e-01,  1.50000e-01,  3.72529e-09 
** ... 593 like lines cut
*ELEMENT, TYPE=S6, ELSET=furnace
     1,      1,      2,      3,      4,      5,      6
     2,      3,      2,      7,      5,      8,      9
     3,      3,      7,     10,      9,     11,     12
     4,     10,      7,     13,     11,     14,     15
     5,     10,     13,     16,     15,     17,     18
     6,     16,     13,     19,     17,     20,     21
     7,     16,     19,     22,     21,     23,     24
     8,     22,     19,     25,     23,     26,     27
     9,     22,     25,     28,     27,     29,     30
    10,     28,     25,     31,     29,     32,     33
    11,      2,     34,      7,     35,     36,      8
    12,      7,     34,     37,     36,     38,     39
    13,      7,     37,     13,     39,     40,     14
    14,     13,     37,     41,     40,     42,     43
    15,     13,     41,     19,     43,     44,     20
    16,     19,     41,     45,     44,     46,     47
    17,     19,     45,     25,     47,     48,     26
    18,     25,     45,     49,     48,     50,     51
    19,     25,     49,     31,     51,     52,     32
    20,     31,     49,     53,     52,     54,     55
** ... 280 like lines cut
*ELEMENT,TYPE=D,ELSET=EGAS
301,603,609,604
302,604,610,605
303,605,611,606
304,606,612,607
305,607,613,608
*NSET,NSET=NGAS,GENERATE
603,608
*NSET,NSET=Ndown 
1, 
2, 
3, 
4, 
5, 
6, 
7, 
8, 
9, 
10, 
11, 
12, 
13, 
14, 
15, 
16, 
17, 
18, 
19, 
20, 
** ... 101 like lines cut
*PHYSICAL CONSTANTS,ABSOLUTE ZERO=0.,STEFAN BOLTZMANN=5.669E-8
*MATERIAL,NAME=STEEL
*DENSITY
7800.
*CONDUCTIVITY
50.
*SPECIFIC HEAT
446.
*SHELL SECTION,ELSET=furnace,MATERIAL=STEEL
0.01
*MATERIAL,NAME=GAS
*DENSITY
1.
*SPECIFIC HEAT
1000.
*FLUID SECTION,ELSET=EGAS,MATERIAL=GAS
*INITIAL CONDITIONS,TYPE=TEMPERATURE
Nall,300.
*AMPLITUDE,NAME=A1
0.,.3,1.,1.
*STEP,INC=100
*HEAT TRANSFER
0.1,1.
*VIEWFACTOR,WRITE
*BOUNDARY,AMPLITUDE=A1
Ndown,11,11,1000.
*BOUNDARY
603,11,11,300.
*BOUNDARY,MASS FLOW
609,1,1,0.001
610,1,1,0.001
611,1,1,0.001
612,1,1,0.001
613,1,1,0.001
*RADIATE
1, R1CR,1000., 1.000000e+00
2, R1CR,1000., 1.000000e+00
3, R1CR,1000., 1.000000e+00
4, R1CR,1000., 1.000000e+00
5, R1CR,1000., 1.000000e+00
6, R1CR,1000., 1.000000e+00
7, R1CR,1000., 1.000000e+00
8, R1CR,1000., 1.000000e+00
9, R1CR,1000., 1.000000e+00
10, R1CR,1000., 1.000000e+00
11, R1CR,1000., 1.000000e+00
12, R1CR,1000., 1.000000e+00
13, R1CR,1000., 1.000000e+00
14, R1CR,1000., 1.000000e+00
15, R1CR,1000., 1.000000e+00
16, R1CR,1000., 1.000000e+00
17, R1CR,1000., 1.000000e+00
18, R1CR,1000., 1.000000e+00
19, R1CR,1000., 1.000000e+00
20, R1CR,1000., 1.000000e+00
** ... 280 like lines cut
51, R2, 300.000000, 8.000000e-01
52, R2, 300.000000, 8.000000e-01
53, R2, 300.000000, 8.000000e-01
54, R2, 300.000000, 8.000000e-01
55, R2, 300.000000, 8.000000e-01
56, R2, 300.000000, 8.000000e-01
57, R2, 300.000000, 8.000000e-01
58, R2, 300.000000, 8.000000e-01
59, R2, 300.000000, 8.000000e-01
60, R2, 300.000000, 8.000000e-01
61, R2, 300.000000, 8.000000e-01
62, R2, 300.000000, 8.000000e-01
63, R2, 300.000000, 8.000000e-01
64, R2, 300.000000, 8.000000e-01
65, R2, 300.000000, 8.000000e-01
66, R2, 300.000000, 8.000000e-01
67, R2, 300.000000, 8.000000e-01
68, R2, 300.000000, 8.000000e-01
69, R2, 300.000000, 8.000000e-01
70, R2, 300.000000, 8.000000e-01
** ... 30 like lines cut
*FILM
51, F2FC, 604, 2.500000e+01
52, F2FC, 604, 2.500000e+01
53, F2FC, 604, 2.500000e+01
54, F2FC, 604, 2.500000e+01
55, F2FC, 604, 2.500000e+01
56, F2FC, 604, 2.500000e+01
57, F2FC, 604, 2.500000e+01
58, F2FC, 604, 2.500000e+01
59, F2FC, 604, 2.500000e+01
60, F2FC, 604, 2.500000e+01
61, F2FC, 605, 2.500000e+01
62, F2FC, 605, 2.500000e+01
63, F2FC, 605, 2.500000e+01
64, F2FC, 605, 2.500000e+01
65, F2FC, 605, 2.500000e+01
66, F2FC, 605, 2.500000e+01
67, F2FC, 605, 2.500000e+01
68, F2FC, 605, 2.500000e+01
69, F2FC, 605, 2.500000e+01
70, F2FC, 605, 2.500000e+01
** ... 30 like lines cut
*NODE PRINT,NSET=NGAS
NT
*END STEP
*STEP
*HEAT TRANSFER
10.,100.
*VIEWFACTOR,READ
*NODE PRINT,NSET=NGAS
NT
*END STEP
*STEP
*HEAT TRANSFER
10.,100.
*VIEWFACTOR,NO CHANGE
*NODE PRINT,NSET=NGAS
NT
*END STEP
