**
**      Structure: linear gas network
**      Test Objective: test of two phase flow (oil/air) 
**             in a series of 8 adiabatic pipes (kg,m,s,K)
**
*HEADING
Model: linear net 3 elements Dtype 
*NODE,NSET= NALL
1, 1, 0, 0
2, 2, 0, 0
3, 3, 0, 0
4, 4, 0, 0
5, 5, 0, 0
6, 6, 0, 0
7, 7, 0, 0
8, 8, 0, 0
9, 9, 0, 0
10,10,0, 0
11,11,0, 0
12,12,0, 0
13,13,0, 0
14,14,0, 0
15,15,0, 0
16,16,0, 0
17,17,0,0
18,18,0,0
19,19,0,0
20,20,0,0
21,21,0,0
*ELEMENT, TYPE=D,ELSET=EGAS
1, 0, 1, 2
2, 2, 3, 4
3, 4, 5, 6
4, 6, 7, 8
5, 8, 9, 10
6,10,11,12
7,12,13,14
8,14,15,16
9,16,17,18
10,18,19,20
11,20,21,0
*MATERIAL,NAME=GAS
*FLUID CONSTANTS
1.0022E3,1.69532E-05,270
1.0045E3,1.84135E-05,300
1.0131E3,2.28232E-05,400
1.0292E3,2.66931E-05,500
1.0506E3,3.01677E-05,600
1.0745E3,3.33396E-05,700
1.0982E3,3.62717E-05,800
1.1204E3,3.90084E-05,900
1.1405E3,4.15824E-05,1000
1.1583E3,4.40182E-05,1100
1.1739E3,4.63352E-05,1200
1.1976E3,4.85486E-05,1300
1.1997E3,5.06708E-05,1400
1.2104E3,5.27117E-05,1500
1.2199E3,5.46798E-05,1600
1.2284E3,5.65822E-05,1700
1.2361E3,5.84249E-05,1800
1.2431E3,6.02131E-05,1900
1.2495E3,6.19512E-05,2000
*SPECIFIC GAS CONSTANT
287.
*MATERIAL,NAME=MOBIL_OIL
*FLUID CONSTANTS
1.7700214E+03,7.01104E-01, 280			 
1.7987529E+03,1.40536E-01, 290			 
1.8274845E+03,6.13910E-02, 300			 
1.9711424E+03,9.67812E-03, 350			 
2.1148002E+03,4.10233E-03, 400			 
2.2584581E+03,2.35820E-03, 450			 
2.4021159E+03,1.57709E-03, 500			 
2.5457738E+03,1.15566E-03, 550			 
2.6894316E+03,9.00782E-04, 600  		 
2.8330895E+03,7.34416E-04, 650			 
2.9767473E+03,6.19871E-04, 700			 
3.1204052E+03,5.37974E-04, 750			 
3.2640630E+03,4.77896E-04, 800			 
3.4077209E+03,4.33156E-04, 850			 
3.5513787E+03,3.99719E-04, 900			 
3.6950366E+03,3.75013E-04, 950			 
3.8386944E+03,3.57405E-04, 1000	
*DENSITY
9.12274E+02, 280
9.05374E+02, 290
8.98474E+02, 300
8.63974E+02, 350
8.29474E+02, 400
7.94974E+02, 450
7.60474E+02, 500
7.25974E+02, 550
6.91474E+02, 600 
6.56974E+02, 650
6.22474E+02, 700
5.87974E+02, 750
5.53474E+02, 800
5.18974E+02, 850
4.84474E+02, 900
4.49974E+02, 950
4.15474E+02, 1000
*FLUID SECTION,MATERIAL=GAS,ELSET=EGAS,TYPE=GAS PIPE FANNO ADIABATIC,OIL=MOBIL_OIL
706.8583E-6,30E-3,55.55E-3,0,1,1E-4,0,
*STEP,INC=100
*HEAT TRANSFER,STEADY STATE
1.,1.
*BOUNDARY
2,0,0,550
4,0,0,550
6,0,0,550
8,0,0,550
10,0,0,550
12,0,0,550
14,0,0,550
16,0,0,550
18,0,0,550
20,0,0,550
2,2,2,0.47e6
20,2,2,0.45e6
*NODE PRINT,NSET=NALL
U,NT
*END STEP
