**
**   Structure: two cubes on top of each other.
**   Test objective: Mortar contact (hard)
**        Ph.D. Thesis Stefan Hüeber, example p 73
**
*NODE, NSET=Nall
       1,1.000000000000e-02,1.000000000000e-02,0.000000000000e+00
       2,1.000000000000e-02,9.833333333333e-03,0.000000000000e+00
       3,1.000000000000e-02,9.833333333333e-03,1.000000000000e-03
       4,1.000000000000e-02,1.000000000000e-02,1.000000000000e-03
       5,9.833333333333e-03,1.000000000000e-02,0.000000000000e+00
       6,9.833333333333e-03,9.833333333333e-03,2.168404344971e-19
       7,9.833333333333e-03,9.833333333333e-03,1.000000000000e-03
       8,9.833333333333e-03,1.000000000000e-02,1.000000000000e-03
       9,9.666666666667e-03,1.000000000000e-02,0.000000000000e+00
      10,9.666666666667e-03,9.833333333333e-03,0.000000000000e+00
      11,9.666666666667e-03,9.833333333333e-03,1.000000000000e-03
      12,9.666666666667e-03,1.000000000000e-02,1.000000000000e-03
      13,9.500000000000e-03,1.000000000000e-02,0.000000000000e+00
      14,9.500000000000e-03,9.833333333333e-03,0.000000000000e+00
      15,9.500000000000e-03,9.833333333333e-03,1.000000000000e-03
      16,9.500000000000e-03,1.000000000000e-02,1.000000000000e-03
      17,9.333333333333e-03,1.000000000000e-02,0.000000000000e+00
      18,9.333333333333e-03,9.833333333333e-03,0.000000000000e+00
      19,9.333333333333e-03,9.833333333333e-03,1.000000000000e-03
      20,9.333333333333e-03,1.000000000000e-02,1.000000000000e-03
** ... 17504 like lines cut
*ELEMENT, TYPE=C3D8, ELSET=Eall
     1,     1,     2,     3,     4,     5,     6,     7,     8
     2,     5,     6,     7,     8,     9,    10,    11,    12
     3,     9,    10,    11,    12,    13,    14,    15,    16
     4,    13,    14,    15,    16,    17,    18,    19,    20
     5,    17,    18,    19,    20,    21,    22,    23,    24
     6,    21,    22,    23,    24,    25,    26,    27,    28
     7,    25,    26,    27,    28,    29,    30,    31,    32
     8,    29,    30,    31,    32,    33,    34,    35,    36
     9,    33,    34,    35,    36,    37,    38,    39,    40
    10,    37,    38,    39,    40,    41,    42,    43,    44
    11,    41,    42,    43,    44,    45,    46,    47,    48
    12,    45,    46,    47,    48,    49,    50,    51,    52
    13,    49,    50,    51,    52,    53,    54,    55,    56
    14,    53,    54,    55,    56,    57,    58,    59,    60
    15,    57,    58,    59,    60,    61,    62,    63,    64
    16,    61,    62,    63,    64,    65,    66,    67,    68
    17,    65,    66,    67,    68,    69,    70,    71,    72
    18,    69,    70,    71,    72,    73,    74,    75,    76
    19,    73,    74,    75,    76,    77,    78,    79,    80
    20,    77,    78,    79,    80,    81,    82,    83,    84
** ... 8480 like lines cut
*NSET,NSET=Ncopy1 
1, 
2, 
3, 
4, 
5, 
6, 
7, 
8, 
9, 
10, 
11, 
12, 
13, 
14, 
15, 
16, 
17, 
18, 
19, 
20, 
** ... 7422 like lines cut
*ELSET,ELSET=Ecopy1 
1, 
2, 
3, 
4, 
5, 
6, 
7, 
8, 
9, 
10, 
11, 
12, 
13, 
14, 
15, 
16, 
17, 
18, 
19, 
20, 
** ... 3580 like lines cut
*NSET,NSET=Ncopy2 
7443, 
7444, 
7445, 
7446, 
7447, 
7448, 
7449, 
7450, 
7451, 
7452, 
7453, 
7454, 
7455, 
7456, 
7457, 
7458, 
7459, 
7460, 
7461, 
7462, 
** ... 10062 like lines cut
*ELSET,ELSET=Ecopy2 
3601, 
3602, 
3603, 
3604, 
3605, 
3606, 
3607, 
3608, 
3609, 
3610, 
3611, 
3612, 
3613, 
3614, 
3615, 
3616, 
3617, 
3618, 
3619, 
3620, 
** ... 4880 like lines cut
*SURFACE, NAME=Smast2
1, S6
2, S6
3, S6
4, S6
5, S6
6, S6
7, S6
8, S6
9, S6
10, S6
11, S6
12, S6
13, S6
14, S6
15, S6
16, S6
17, S6
18, S6
19, S6
20, S6
** ... 40 like lines cut
*SURFACE, NAME=Sslav2
8431, S4
8432, S4
8433, S4
8434, S4
8435, S4
8436, S4
8437, S4
8438, S4
8439, S4
8440, S4
8441, S4
8442, S4
8443, S4
8444, S4
8445, S4
8446, S4
8447, S4
8448, S4
8449, S4
8450, S4
** ... 50 like lines cut
*NSET,NSET=Ncopy2_l1 
7723, 
7726, 
*NSET,NSET=Ncopy2_l2 
17523, 
17524, 
*NSET,NSET=Ncopy2_l3 
7724, 
7725, 
7867, 
7868, 
8009, 
8010, 
8151, 
8152, 
8293, 
8294, 
8435, 
8436, 
8577, 
8578, 
8719, 
8720, 
8861, 
8862, 
9003, 
9004, 
** ... 118 like lines cut
*NSET,NSET=Ncopy1_r1 
1, 
4, 
*NSET,NSET=Ncopy1_r2 
7321, 
7322, 
*NSET,NSET=Ncopy1_r3 
2, 
3, 
245, 
246, 
367, 
368, 
489, 
490, 
611, 
612, 
733, 
734, 
855, 
856, 
977, 
978, 
1099, 
1100, 
1221, 
1222, 
** ... 98 like lines cut
*BOUNDARY
7321, 1, , 
7322, 1, , 
7323, 1, , 
7324, 1, , 
7325, 1, , 
7326, 1, , 
7327, 1, , 
7328, 1, , 
7329, 1, , 
7330, 1, , 
7331, 1, , 
7332, 1, , 
7333, 1, , 
7334, 1, , 
7335, 1, , 
7336, 1, , 
7337, 1, , 
7338, 1, , 
7339, 1, , 
7340, 1, , 
** ... 18296 like lines cut
*NSET,NSET=Nout 
1, 
4, 
5, 
8, 
9, 
12, 
13, 
16, 
17, 
20, 
21, 
24, 
25, 
28, 
29, 
32, 
33, 
36, 
37, 
40, 
** ... 244 like lines cut
*MATERIAL,NAME=E1
*ELASTIC
15.00000e+09,.2
*SOLID SECTION,ELSET=Ecopy1,MATERIAL=E1
*MATERIAL,NAME=E2
*ELASTIC
20.00000e+09,.4
*SOLID SECTION,ELSET=Ecopy2,MATERIAL=E2
*CONTACT PAIR,INTERACTION=SI1, TYPE=SURFACE TO SURFACE
Sslav2,Smast2
*SURFACE INTERACTION,NAME=SI1
*SURFACE BEHAVIOR,PRESSURE-OVERCLOSURE=LINEAR
1.E15,3
*STEP
*STATIC
*CLOAD
Ncopy2_l1, 1,  4.1667e-03
Ncopy2_l1, 2, -4.1667e-02
Ncopy2_l3, 1,  8.3333e-03
Ncopy2_l3, 2, -8.3333e-02
Ncopy2_l2, 1,  4.1667e-03
Ncopy2_l2, 2, -4.1667e-02
Ncopy1_r1, 1, -4.1667e-03
Ncopy1_r1, 2, -4.1667e-02
Ncopy1_r3, 1, -8.3333e-03
Ncopy1_r3, 2, -8.3333e-02
Ncopy1_r2, 1, -4.1667e-03
Ncopy1_r2, 2, -4.1667e-02
*NODE PRINT,NSET=Nout,FREQUENCY=100
U
*END STEP
