**
**   Structure: cube with distributed loading.
**   Test objective: facial loading not coincident with
**                   faces of the cube: loading area
**                   modeled as thin shell
**
*NODE, NSET=Nall
       1,1.000000000000e+00,1.000000000000e+00,0.000000000000e+00
       2,1.000000000000e+00,0.000000000000e+00,0.000000000000e+00
       3,1.000000000000e+00,0.000000000000e+00,1.000000000000e+00
       4,1.000000000000e+00,1.000000000000e+00,1.000000000000e+00
       5,0.000000000000e+00,1.000000000000e+00,0.000000000000e+00
       6,0.000000000000e+00,0.000000000000e+00,0.000000000000e+00
       7,0.000000000000e+00,0.000000000000e+00,1.000000000000e+00
       8,0.000000000000e+00,1.000000000000e+00,1.000000000000e+00
       9,1.000000000000e+00,5.000000000000e-01,0.000000000000e+00
      10,1.000000000000e+00,0.000000000000e+00,5.000000000000e-01
      11,1.000000000000e+00,5.000000000000e-01,1.000000000000e+00
      12,1.000000000000e+00,1.000000000000e+00,5.000000000000e-01
      13,5.000000000000e-01,1.000000000000e+00,0.000000000000e+00
      14,5.000000000000e-01,0.000000000000e+00,0.000000000000e+00
      15,5.000000000000e-01,0.000000000000e+00,1.000000000000e+00
      16,5.000000000000e-01,1.000000000000e+00,1.000000000000e+00
      17,0.000000000000e+00,5.000000000000e-01,0.000000000000e+00
      18,0.000000000000e+00,0.000000000000e+00,5.000000000000e-01
      19,0.000000000000e+00,5.000000000000e-01,1.000000000000e+00
      20,0.000000000000e+00,1.000000000000e+00,5.000000000000e-01
** ... 20 like lines cut
*ELEMENT,TYPE=C3D20R,ELSET=Esolid
     1,     1,     2,     3,     4,     5,     6,     7,     8,     9,    10,
          11,    12,    17,    18,    19,    20,    13,    14,    15,    16
*ELEMENT,TYPE=S8,ELSET=Eshell
2,25,21,22,26,33,29,34,37
*NSET,NSET=Nfix 
1, 
2, 
5, 
6, 
9, 
13, 
14, 
17, 
*BOUNDARY
Nfix,1,3
*SURFACE,NAME=Sslav
2, S2 
*SURFACE,NAME=Smast
1, S5
*CONTACT PAIR,INTERACTION=SI1,TYPE=SURFACE TO SURFACE
Sslav,Smast
*SURFACE INTERACTION,NAME=SI1
*SURFACE BEHAVIOR,PRESSURE-OVERCLOSURE=TIED
1.E10
*FRICTION
.2,1.E10
*MATERIAL,NAME=EL
*ELASTIC
210000.,.0
*SOLID SECTION,ELSET=Esolid,MATERIAL=EL
*SHELL SECTION,ELSET=Eshell,MATERIAL=EL
1.e-10
*STEP,NLGEOM
*STATIC
1.,1.
*DLOAD
2, P, 100.000000 
*NODE PRINT,NSET=Nfix,TOTALS=ONLY
RF
*EL PRINT,ELSET=Esolid
E
*EL PRINT,ELSET=Eshell,GLOBAL=YES
S
*END STEP
