**
**   Structure: cylinder.
**   Test objective: multistage MPC's.
**
*NODE, NSET=Nall
       1,  5.00000e+01,  5.20000e+01,  0.00000e+00 
       2,  5.00000e+01,  5.00000e+01,  0.00000e+00 
       3,  5.00000e+01,  4.99154e+01,  2.90724e+00 
       4,  5.00000e+01,  5.19120e+01,  3.02353e+00 
       5,  4.76215e+01,  5.20000e+01,  0.00000e+00 
       6,  4.76215e+01,  5.00000e+01,  0.00000e+00 
       7,  4.76215e+01,  4.99154e+01,  2.90724e+00 
       8,  4.76215e+01,  5.19120e+01,  3.02353e+00 
       9,  5.00000e+01,  5.10000e+01,  0.00000e+00 
      10,  5.00000e+01,  4.99788e+01,  1.45424e+00 
      11,  5.00000e+01,  5.09137e+01,  2.96539e+00 
      12,  5.00000e+01,  5.19780e+01,  1.51241e+00 
      13,  4.88108e+01,  5.20000e+01,  0.00000e+00 
      14,  4.88108e+01,  5.00000e+01,  0.00000e+00 
      15,  4.88108e+01,  4.99154e+01,  2.90724e+00 
      16,  4.88108e+01,  5.19120e+01,  3.02353e+00 
      17,  4.76215e+01,  5.10000e+01,  0.00000e+00 
      18,  4.76215e+01,  4.99788e+01,  1.45424e+00 
      19,  4.76215e+01,  5.09137e+01,  2.96539e+00 
      20,  4.76215e+01,  5.19780e+01,  1.51241e+00 
** ... 1136 like lines cut
*NSET,NSET=Ncyl,GENERATE
1,1156
*ELEMENT, TYPE=C3D20R, ELSET=Eall
     1,     1,     2,     3,     4,     5,     6,     7,     8,     9,    10,
          11,    12,    17,    18,    19,    20,    13,    14,    15,    16
     2,     4,     3,    21,    22,     8,     7,    23,    24,    11,    25,
          26,    27,    19,    30,    31,    32,    16,    15,    28,    29
     3,    22,    21,    33,    34,    24,    23,    35,    36,    26,    37,
          38,    39,    31,    42,    43,    44,    29,    28,    40,    41
     4,    34,    33,    45,    46,    36,    35,    47,    48,    38,    49,
          50,    51,    43,    54,    55,    56,    41,    40,    52,    53
     5,    46,    45,    57,    58,    48,    47,    59,    60,    50,    61,
          62,    63,    55,    66,    67,    68,    53,    52,    64,    65
     6,    58,    57,    69,    70,    60,    59,    71,    72,    62,    73,
          74,    75,    67,    78,    79,    80,    65,    64,    76,    77
     7,     5,     6,     7,     8,    81,    82,    83,    84,    17,    18,
          19,    20,    89,    90,    91,    92,    85,    86,    87,    88
     8,     8,     7,    23,    24,    84,    83,    93,    94,    19,    30,
          31,    32,    91,    97,    98,    99,    88,    87,    95,    96
     9,    24,    23,    35,    36,    94,    93,   100,   101,    31,    42,
          43,    44,    98,   104,   105,   106,    96,    95,   102,   103
    10,    36,    35,    47,    48,   101,   100,   107,   108,    43,    54,
          55,    56,   105,   111,   112,   113,   103,   102,   109,   110
** ... 260 like lines cut
*NSET,NSET=ND1SL 
5, 
6, 
13, 
14, 
17, 
81, 
82, 
85, 
86, 
89, 
128, 
129, 
132, 
133, 
136, 
175, 
176, 
179, 
180, 
183, 
** ... 30 like lines cut
*NSET,NSET=ND1SR 
69, 
70, 
71, 
72, 
74, 
76, 
77, 
79, 
121, 
122, 
123, 
124, 
126, 
168, 
169, 
170, 
171, 
173, 
215, 
216, 
** ... 33 like lines cut
*NSET,NSET=ND2SL 
504, 
505, 
508, 
509, 
512, 
516, 
517, 
520, 
608, 
610, 
612, 
615, 
617, 
669, 
671, 
673, 
676, 
678, 
730, 
732, 
** ... 30 like lines cut
*NSET,NSET=ND2SR 
596, 
597, 
598, 
599, 
601, 
603, 
604, 
606, 
662, 
663, 
665, 
666, 
668, 
723, 
724, 
726, 
727, 
729, 
784, 
785, 
** ... 30 like lines cut
*NSET,NSET=NDEP 
1096, 
1097, 
1098, 
1099, 
1101, 
1103, 
1104, 
1106, 
1108, 
1109, 
1110, 
1112, 
1113, 
1115, 
1116, 
1117, 
1119, 
1120, 
1122, 
1123, 
** ... 23 like lines cut
*NSET,NSET=NIND 
1, 
2, 
3, 
4, 
9, 
10, 
11, 
12, 
21, 
22, 
25, 
26, 
27, 
33, 
34, 
37, 
38, 
39, 
45, 
46, 
** ... 13 like lines cut
*ELSET,ELSET=EA1 
1, 
2, 
3, 
4, 
5, 
6, 
7, 
8, 
9, 
10, 
11, 
12, 
13, 
14, 
15, 
16, 
17, 
18, 
19, 
20, 
** ... 40 like lines cut
*ELSET,ELSET=EA2 
61, 
62, 
63, 
64, 
65, 
66, 
67, 
68, 
69, 
70, 
71, 
72, 
73, 
74, 
75, 
76, 
77, 
78, 
79, 
80, 
** ... 60 like lines cut
*TRANSFORM, NSET=Ncyl, TYPE=C
0.,0.,0., 1.,0.,0.
*AMPLITUDE, NAME=Amp1, DEFINITION=TABULAR                                
0.001, 1.0, 100000.0, 1.0
*BOUNDARY
507, 1, , 
511, 1, , 
515, 1, , 
519, 1, , 
523, 1, , 
525, 1, , 
527, 1, , 
530, 1, , 
532, 1, , 
535, 1, , 
537, 1, , 
539, 1, , 
542, 1, , 
544, 1, , 
547, 1, , 
549, 1, , 
551, 1, , 
554, 1, , 
556, 1, , 
559, 1, , 
** ... 100 like lines cut
*SURFACE,NAME=SURF1,TYPE=NODE
ND1SL
*SURFACE,NAME=SURF2,TYPE=NODE
ND1SR
*TIE, NAME=TIE1, CYCLIC SYMMETRY,POSITION TOLERANCE=1.E-4
SURF1,SURF2
*CYCLIC SYMMETRY MODEL,N=18, TIE=TIE1, ELSET=EA1, NGRAPH=18
0.,0.,0., 1.,0.,0.
*SURFACE,NAME=SURF3,TYPE=NODE
ND2SL
*SURFACE,NAME=SURF4,TYPE=NODE
ND2SR
*TIE, NAME=TIE2, CYCLIC SYMMETRY,POSITION TOLERANCE=1.E-4
SURF3,SURF4
*CYCLIC SYMMETRY MODEL,N=12, TIE=TIE2, ELSET=EA2, NGRAPH=12
0.,0.,0., 1.,0.,0.
*SURFACE,NAME=SURF5,TYPE=NODE
NIND
*SURFACE,NAME=SURF6,TYPE=NODE
NDEP
*TIE, NAME=TIE3, MULTISTAGE,POSITION TOLERANCE=1.E-4
SURF5,SURF6
*MATERIAL,NAME=EL
*ELASTIC,TYPE=ISO
90000,0.343,293.15
113085,0.343,300.15
107845,0.343,400.15
102605,0.343,500.15
97365.2,0.343,600.15
93540,0.343,673.15
*DENSITY
4.43e-09
*SOLID SECTION, ELSET=Eall, MATERIAL=EL
*INITIAL CONDITIONS, TYPE=TEMPERATURE
Nall, 293.
*NSET,NSET=NOUT
477,940
*STEP
*FREQUENCY,STORAGE=YES
20
*SELECT CYCLIC SYMMETRY MODES,NMIN=1,NMAX=1
*END STEP
*STEP
*STEADY STATE DYNAMICS,NSET=Nall
0,5000
*DLOAD,OP=NEW
*MODAL DAMPING,RAYLEIGH 
1, 400, 5000.    
*CLOAD, LOAD CASE=1, AMPLITUDE=Amp1,SECTOR=1
477,3,1.00000  
*CLOAD, LOAD CASE=1, AMPLITUDE=Amp1,SECTOR=2
477,3,0.93969
*CLOAD, LOAD CASE=1, AMPLITUDE=Amp1,SECTOR=3
477,3,0.76604
*CLOAD, LOAD CASE=1, AMPLITUDE=Amp1,SECTOR=4
477,3,0.50000
*CLOAD, LOAD CASE=1, AMPLITUDE=Amp1,SECTOR=5
477,3,0.17365
*CLOAD, LOAD CASE=1, AMPLITUDE=Amp1,SECTOR=6
477,3,-0.17365
*CLOAD, LOAD CASE=1, AMPLITUDE=Amp1,SECTOR=7
477,3,-0.50000
*CLOAD, LOAD CASE=1, AMPLITUDE=Amp1,SECTOR=8
477,3,-0.76604
*CLOAD, LOAD CASE=1, AMPLITUDE=Amp1,SECTOR=9
477,3,-0.93969
*CLOAD, LOAD CASE=1, AMPLITUDE=Amp1,SECTOR=10
477,3,-1.00000
*CLOAD, LOAD CASE=1, AMPLITUDE=Amp1,SECTOR=11
477,3,-0.93969
*CLOAD, LOAD CASE=1, AMPLITUDE=Amp1,SECTOR=12
477,3,-0.76604
*CLOAD, LOAD CASE=1, AMPLITUDE=Amp1,SECTOR=13
477,3,-0.50000
*CLOAD, LOAD CASE=1, AMPLITUDE=Amp1,SECTOR=14
477,3,-0.17365
*CLOAD, LOAD CASE=1, AMPLITUDE=Amp1,SECTOR=15
477,3,0.17365
*CLOAD, LOAD CASE=1, AMPLITUDE=Amp1,SECTOR=16
477,3,0.50000
*CLOAD, LOAD CASE=1, AMPLITUDE=Amp1,SECTOR=17
477,3,0.76604
*CLOAD, LOAD CASE=1, AMPLITUDE=Amp1,SECTOR=18
477,3,0.93969
*CLOAD, LOAD CASE=2, AMPLITUDE=Amp1,SECTOR=1
477,3,0.00000  
*CLOAD, LOAD CASE=2, AMPLITUDE=Amp1,SECTOR=2
** ... 33 like lines cut
*NODE PRINT,NSET=NOUT
u
*END STEP

