**
**   Structure: plate.
**   Test objective: C3D8 elements
**                   strain energy sensitivity
**                   cf. planestresssens and planestressquadsens
**
*NODE, NSET=Nall
      22,-7.450579986301e-09,-7.450579986301e-09,-5.000000000000e-03
      24,-7.450579986301e-09,-7.450579986301e-09,5.000000000000e-03
      25,5.000000000000e-01,-7.450579986301e-09,-5.000000000000e-03
      27,5.000000000000e-01,-7.450579986301e-09,5.000000000000e-03
      28,5.000000000000e-01,5.000000000000e-01,-5.000000000000e-03
      30,5.000000000000e-01,5.000000000000e-01,5.000000000000e-03
      31,-7.450579986301e-09,5.000000000000e-01,-5.000000000000e-03
      33,-7.450579986301e-09,5.000000000000e-01,5.000000000000e-03
      34,5.000000000000e-01,1.000000000000e+00,-5.000000000000e-03
      36,5.000000000000e-01,1.000000000000e+00,5.000000000000e-03
      37,-7.450579986301e-09,1.000000000000e+00,-5.000000000000e-03
      39,-7.450579986301e-09,1.000000000000e+00,5.000000000000e-03
      40,1.000000000000e+00,-7.450579986301e-09,-5.000000000000e-03
      42,1.000000000000e+00,-7.450579986301e-09,5.000000000000e-03
      43,1.000000000000e+00,5.000000000000e-01,-5.000000000000e-03
      45,1.000000000000e+00,5.000000000000e-01,5.000000000000e-03
      46,1.000000000000e+00,1.000000000000e+00,-5.000000000000e-03
      48,1.000000000000e+00,1.000000000000e+00,5.000000000000e-03
*ELEMENT, TYPE=C3D8, ELSET=Eall
     1,    22,    25,    28,    31,    24,    27,    30,    33
     2,    31,    28,    34,    37,    33,    30,    36,    39
     3,    25,    40,    43,    28,    27,    42,    45,    30
     4,    28,    43,    46,    34,    30,    45,    48,    36
*NSET,NSET=Nfixx
22,24,31,33,37,39
*NSET,NSET=Nfixz
22,31,37,34,46,43,40,25
*NSET,NSET=DESIGNNODES
25
*DESIGNVARIABLES,TYPE=COORDINATE
DESIGNNODES
*BOUNDARY
Nfixx,1,1
4,2,2
31,2,2
33,2,2
Nfixz,3,3
*MATERIAL,NAME=EL
*ELASTIC
210000,.3
*SOLID SECTION,ELSET=Eall,MATERIAL=EL
*STEP
*STATIC
*DLOAD
3,P4,-100.
4,P4,-100.
*NODE FILE
U
*EL FILE
S
*END STEP
*STEP
*SENSITIVITY
*OBJECTIVE
STRAIN ENERGY,EALL
*NODE FILE
SEN
*END STEP
