**
**   Structure: bolt-like structure.
**   Test objective: pre-tension force under bending.
**
*NODE, NSET=Nall
       1,2.500000000000e-01,3.000000000000e-01,0.000000000000e+00
       2,2.500000000000e-01,0.000000000000e+00,0.000000000000e+00
       3,2.500000000000e-01,0.000000000000e+00,3.000000000000e-01
       4,2.500000000000e-01,3.000000000000e-01,3.000000000000e-01
       5,0.000000000000e+00,3.000000000000e-01,0.000000000000e+00
       6,0.000000000000e+00,0.000000000000e+00,0.000000000000e+00
       7,0.000000000000e+00,0.000000000000e+00,3.000000000000e-01
       8,0.000000000000e+00,3.000000000000e-01,3.000000000000e-01
       9,2.500000000000e-01,1.500000000000e-01,0.000000000000e+00
      10,2.500000000000e-01,0.000000000000e+00,1.500000000000e-01
      11,2.500000000000e-01,1.500000000000e-01,3.000000000000e-01
      12,2.500000000000e-01,3.000000000000e-01,1.500000000000e-01
      13,1.250000000000e-01,3.000000000000e-01,0.000000000000e+00
      14,1.250000000000e-01,0.000000000000e+00,0.000000000000e+00
      15,1.250000000000e-01,0.000000000000e+00,3.000000000000e-01
      16,1.250000000000e-01,3.000000000000e-01,3.000000000000e-01
      17,0.000000000000e+00,1.500000000000e-01,0.000000000000e+00
      18,0.000000000000e+00,0.000000000000e+00,1.500000000000e-01
      19,0.000000000000e+00,1.500000000000e-01,3.000000000000e-01
      20,0.000000000000e+00,3.000000000000e-01,1.500000000000e-01
** ... 141 like lines cut
*ELEMENT, TYPE=C3D20, ELSET=Eall
     1,     1,     2,     3,     4,     5,     6,     7,     8,     9,    10,
          11,    12,    17,    18,    19,    20,    13,    14,    15,    16
     2,    21,    22,    23,    24,     1,     2,     3,     4,    25,    26,
          27,    28,     9,    10,    11,    12,    29,    30,    31,    32
     3,    33,    34,    35,    36,    21,    22,    23,    24,    37,    38,
          39,    40,    25,    26,    27,    28,    41,    42,    43,    44
     4,    45,     1,     4,    46,    47,     5,     8,    48,    49,    12,
          50,    51,    54,    20,    55,    56,    52,    13,    16,    53
     5,    57,    33,    36,    58,    59,    21,    24,    60,    61,    40,
          62,    63,    66,    28,    67,    68,    64,    41,    44,    65
     6,    69,    45,    46,    70,    71,    47,    48,    72,    73,    51,
          74,    75,    78,    56,    79,    80,    76,    52,    53,    77
     7,    81,    59,    60,    82,    83,    84,    85,    86,    87,    68,
          88,    89,    94,    95,    96,    97,    90,    91,    92,    93
     8,    83,    84,    85,    86,    69,    45,    46,    70,    94,    95,
          96,    97,    73,    51,    74,    75,    98,    99,   100,   101
     9,   102,    57,    58,   103,    81,    59,    60,    82,   104,    63,
         105,   106,    87,    68,    88,    89,   107,    64,    65,   108
    10,   109,    69,    70,   110,   111,    71,    72,   112,   113,    75,
         114,   115,   118,    80,   119,   120,   116,    76,    77,   117
** ... 8 like lines cut
*NSET,NSET=Nfixx 
29, 
30, 
31, 
32, 
150, 
151, 
152, 
153, 
*BOUNDARY
Nfixx,1,1
30,2,3
31,2,2
*MATERIAL,NAME=EL
*ELASTIC
210000.,.3
*EXPANSION
0.
*SOLID SECTION,ELSET=Eall,MATERIAL=EL
*SURFACE,NAME=SURF1
7,S2
*PRE-TENSION SECTION,SURFACE=SURF1,NODE=161
1.,0.,0.
*INITIAL CONDITIONS,TYPE=TEMPERATURE
Nall,273.
*STEP
*STATIC
*TEMPERATURE
Nall,473.
*CLOAD
161,1,-10.
33,1,10.
36,1,10.
121,1,-10.
122,1,-10.
5,1,-10.
8,1,-10.
111,1,10.
112,1,10.
*NODE PRINT,NSET=Nall
RF
*NODE FILE
U
*END STEP
