**
**   Structure: two axisymmetric elements.
**   Test objective: pre-tension force.
**
*NODE, NSET=Nall
       1,1.000000000000e-01,2.000000000000e+00,0.000000000000e+00
       2,1.000000000000e-01,1.000000000000e+00,0.000000000000e+00
       3,1.100000000000e+00,1.000000000000e+00,0.000000000000e+00
       4,1.100000000000e+00,2.000000000000e+00,0.000000000000e+00
       5,1.000000000000e-01,1.500000000000e+00,0.000000000000e+00
       6,6.000000000000e-01,1.000000000000e+00,0.000000000000e+00
       7,1.100000000000e+00,1.500000000000e+00,0.000000000000e+00
       8,6.000000000000e-01,2.000000000000e+00,0.000000000000e+00
       9,1.000000000000e-01,0.000000000000e+00,0.000000000000e+00
      10,1.100000000000e+00,0.000000000000e+00,0.000000000000e+00
      11,1.000000000000e-01,5.000000000000e-01,0.000000000000e+00
      12,6.000000000000e-01,0.000000000000e+00,0.000000000000e+00
      13,1.100000000000e+00,5.000000000000e-01,0.000000000000e+00
14,0.,0.,0.
*ELEMENT, TYPE=CAX8, ELSET=Eall
     1,      1,      2,      3,      4,      5,      6,      7,      8
     2,      2,      9,     10,      3,     11,     12,     13,      6
*MATERIAL,NAME=EL
*ELASTIC
210000.,.3
*SOLID SECTION,ELSET=Eall,MATERIAL=EL
.1
*NSET,NSET=Nfix 
1, 
4, 
8, 
9, 
10, 
12, 
*BOUNDARY
1,1,2
8,2,2
4,2,2
9,1,2
12,2,2
10,2,2
*SURFACE,NAME=S1
1,S2
*PRE-TENSION SECTION,SURFACE=S1,NODE=14
**0.,-1.,0.
*NSET,NSET=N1
14
*STEP
*STATIC
*BOUNDARY
14,1,1,.01
*NODE PRINT,NSET=N1
u
*EL PRINT,ELSET=Eall
s
*END STEP

