**
**   Structure: two concentric rings.
**   Test objective: change of eigenfrequencies due to
**                   contact between rings
**                   large displacement stiffness +
**                   stress stiffness + tied contact
**
*NODE, NSET=Nall
       1,-7.500000000000e-01,1.299038105677e+00,0.000000000000e+00
       2,-6.101049646137e-01,1.370318186464e+00,0.000000000000e+00
       3,-6.101049646137e-01,1.370318186464e+00,5.000000000000e-02
       4,-7.500000000000e-01,1.299038105677e+00,5.000000000000e-02
       5,-7.000000000000e-01,1.212435565298e+00,0.000000000000e+00
       6,-5.694313003061e-01,1.278963640700e+00,0.000000000000e+00
       7,-5.694313003061e-01,1.278963640700e+00,5.000000000000e-02
       8,-7.000000000000e-01,1.212435565298e+00,5.000000000000e-02
       9,-6.809857496093e-01,1.336509786283e+00,0.000000000000e+00
      10,-6.101049646137e-01,1.370318186464e+00,2.500000000000e-02
      11,-6.809857496093e-01,1.336509786283e+00,5.000000000000e-02
      12,-7.500000000000e-01,1.299038105677e+00,2.500000000000e-02
      13,-7.250000000000e-01,1.255736835487e+00,0.000000000000e+00
      14,-5.897681324599e-01,1.324640913582e+00,0.000000000000e+00
      15,-5.897681324599e-01,1.324640913582e+00,5.000000000000e-02
      16,-7.250000000000e-01,1.255736835487e+00,5.000000000000e-02
      17,-6.355866996354e-01,1.247409133864e+00,0.000000000000e+00
      18,-5.694313003061e-01,1.278963640700e+00,2.500000000000e-02
      19,-6.355866996354e-01,1.247409133864e+00,5.000000000000e-02
      20,-7.000000000000e-01,1.212435565298e+00,2.500000000000e-02
** ... 700 like lines cut
*ELEMENT, TYPE=C3D20, ELSET=Eall
     1,     1,     2,     3,     4,     5,     6,     7,     8,     9,    10,
          11,    12,    17,    18,    19,    20,    13,    14,    15,    16
     2,     4,     3,    21,    22,     8,     7,    23,    24,    11,    25,
          26,    27,    19,    30,    31,    32,    16,    15,    28,    29
     3,     5,     6,     7,     8,    33,    34,    35,    36,    17,    18,
          19,    20,    41,    42,    43,    44,    37,    38,    39,    40
     4,     8,     7,    23,    24,    36,    35,    45,    46,    19,    30,
          31,    32,    43,    49,    50,    51,    40,    39,    47,    48
     5,    33,    34,    35,    36,    52,    53,    54,    55,    41,    42,
          43,    44,    60,    61,    62,    63,    56,    57,    58,    59
     6,    36,    35,    45,    46,    55,    54,    64,    65,    43,    49,
          50,    51,    62,    68,    69,    70,    59,    58,    66,    67
     7,    52,    53,    54,    55,    71,    72,    73,    74,    60,    61,
          62,    63,    79,    80,    81,    82,    75,    76,    77,    78
     8,    55,    54,    64,    65,    74,    73,    83,    84,    62,    68,
          69,    70,    81,    87,    88,    89,    78,    77,    85,    86
     9,    71,    72,    73,    74,    90,    91,    92,    93,    79,    80,
          81,    82,    98,    99,   100,   101,    94,    95,    96,    97
    10,    74,    73,    83,    84,    93,    92,   102,   103,    81,    87,
          88,    89,   100,   106,   107,   108,    97,    96,   104,   105
** ... 180 like lines cut
*TRANSFORM,NSET=Nall,TYPE=C
0.,0.,0.,0.,0.,1.
*NSET,NSET=Nout 
362, 
363, 
369, 
370, 
371, 
381, 
385, 
386, 
469, 
470, 
473, 
474, 
475, 
481, 
483, 
484, 
532, 
533, 
536, 
537, 
** ... 20 like lines cut
*NSET,NSET=Nin 
91, 
92, 
98, 
99, 
100, 
102, 
106, 
107, 
161, 
162, 
165, 
166, 
167, 
168, 
170, 
171, 
224, 
225, 
228, 
229, 
** ... 20 like lines cut
*NSET,NSET=Nindout 
658, 
659, 
660, 
661, 
663, 
665, 
666, 
668, 
670, 
671, 
672, 
674, 
675, 
677, 
678, 
679, 
680, 
682, 
684, 
685, 
** ... 25 like lines cut
*NSET,NSET=Nindin 
298, 
299, 
300, 
301, 
303, 
305, 
306, 
308, 
310, 
311, 
312, 
314, 
315, 
317, 
318, 
319, 
320, 
322, 
324, 
325, 
** ... 25 like lines cut
*NSET,NSET=Ndepout 
361, 
364, 
365, 
368, 
372, 
373, 
376, 
380, 
382, 
384, 
387, 
389, 
392, 
393, 
396, 
397, 
400, 
404, 
406, 
408, 
** ... 25 like lines cut
*NSET,NSET=Ndepin 
1, 
4, 
5, 
8, 
12, 
13, 
16, 
20, 
22, 
24, 
27, 
29, 
32, 
33, 
36, 
37, 
40, 
44, 
46, 
48, 
** ... 25 like lines cut
*SURFACE, NAME=Smaster
59, S2
69, S2
60, S2
70, S2
79, S2
80, S2
89, S2
90, S2
99, S2
100, S2
*SURFACE, NAME=Sslave
1, S1
11, S1
2, S1
12, S1
21, S1
22, S1
31, S1
32, S1
41, S1
42, S1
*ELSET,ELSET=Eout
51, 
52, 
53, 
54, 
55, 
56, 
57, 
58, 
59, 
60, 
61, 
62, 
63, 
64, 
65, 
66, 
67, 
68, 
69, 
70, 
** ... 30 like lines cut
*ELSET,ELSET=Ein
1, 
2, 
3, 
4, 
5, 
6, 
7, 
8, 
9, 
10, 
11, 
12, 
13, 
14, 
15, 
16, 
17, 
18, 
19, 
20, 
** ... 30 like lines cut
*SURFACE,NAME=Sdepin,TYPE=NODE
Ndepin
*SURFACE,NAME=Sdepout,TYPE=NODE
Ndepout
*SURFACE,NAME=Sindin,TYPE=NODE
Nindin
*SURFACE,NAME=Sindout,TYPE=NODE
Nindout
*TIE,CYCLIC SYMMETRY,NAME=Tin
Sdepin,Sindin
*CYCLIC SYMMETRY MODEL,N=12,NGRAPH=1,TIE=Tin,ELSET=Ein
0.,0.,0.,0.,0.,1.
*TIE,CYCLIC SYMMETRY,NAME=Tout
Sdepout,Sindout
*CYCLIC SYMMETRY MODEL,N=12,NGRAPH=1,TIE=Tout,ELSET=Eout
0.,0.,0.,0.,0.,1.
*TIE,NAME=T1
Sslave,Smaster
*SURFACE INTERACTION,NAME=SI1
*SURFACE BEHAVIOR,PRESSURE-OVERCLOSURE=LINEAR
1.e7
*FRICTION
1.e10,1.e7
*MATERIAL,NAME=EL
*ELASTIC
210000.,.3
*DENSITY
7.8E-9
*SOLID SECTION,ELSET=Eall,MATERIAL=EL
*BOUNDARY
228,2,3
536,2,3
Nin,1,3,0.0
Nout,1,3,0.0
*STEP,NLGEOM
*STATIC
*BOUNDARY
Nin,1,1,0.005
Nout,1,1,-0.005
*END STEP
*STEP,PERTURBATION
*FREQUENCY
20
*SELECT CYCLIC SYMMETRY MODES,NMIN=1,NMAX=1
*END STEP
