**
**   Structure: two rings
**   Test objective: node-to-face penalty contact with cyclic symmetry
**
*NODE, NSET=Nall
       1,5.000000000000e-01,0.000000000000e+00,2.500000000000e-01
       2,5.000000000000e-01,0.000000000000e+00,0.000000000000e+00
       3,4.997321471714e-01,1.635954887368e-02,0.000000000000e+00
       4,4.997321471714e-01,1.635954887368e-02,2.500000000000e-01
       5,5.156250000000e-01,0.000000000000e+00,2.500000000000e-01
       6,5.156250000000e-01,0.000000000000e+00,0.000000000000e+00
       7,5.153487936581e-01,1.687078259899e-02,0.000000000000e+00
       8,5.153487936581e-01,1.687078259899e-02,2.500000000000e-01
       9,4.989291675667e-01,3.270157890885e-02,0.000000000000e+00
      10,4.989291675667e-01,3.270157890885e-02,2.500000000000e-01
      11,5.145207380230e-01,3.372349911830e-02,0.000000000000e+00
      12,5.145207380230e-01,3.372349911830e-02,2.500000000000e-01
      13,4.975919204440e-01,4.900859084640e-02,0.000000000000e+00
      14,4.975919204440e-01,4.900859084640e-02,2.500000000000e-01
      15,5.131417192401e-01,5.054010343918e-02,0.000000000000e+00
      16,5.131417192401e-01,5.054010343918e-02,2.500000000000e-01
      17,4.957218371431e-01,6.526312284475e-02,0.000000000000e+00
      18,4.957218371431e-01,6.526312284475e-02,2.500000000000e-01
      19,5.112132134151e-01,6.730258803654e-02,0.000000000000e+00
      20,5.112132134151e-01,6.730258803654e-02,2.500000000000e-01
** ... 1136 like lines cut
*ELEMENT, TYPE=C3D8, ELSET=Eall
     1,     1,     2,     3,     4,     5,     6,     7,     8
     2,     4,     3,     9,    10,     8,     7,    11,    12
     3,    10,     9,    13,    14,    12,    11,    15,    16
     4,    14,    13,    17,    18,    16,    15,    19,    20
     5,    18,    17,    21,    22,    20,    19,    23,    24
     6,    22,    21,    25,    26,    24,    23,    27,    28
     7,    26,    25,    29,    30,    28,    27,    31,    32
     8,    30,    29,    33,    34,    32,    31,    35,    36
     9,    34,    33,    37,    38,    36,    35,    39,    40
    10,    38,    37,    41,    42,    40,    39,    43,    44
    11,    42,    41,    45,    46,    44,    43,    47,    48
    12,    46,    45,    49,    50,    48,    47,    51,    52
    13,    50,    49,    53,    54,    52,    51,    55,    56
    14,    54,    53,    57,    58,    56,    55,    59,    60
    15,    58,    57,    61,    62,    60,    59,    63,    64
    16,    62,    61,    65,    66,    64,    63,    67,    68
    17,     5,     6,     7,     8,    69,    70,    71,    72
    18,     8,     7,    11,    12,    72,    71,    73,    74
    19,    12,    11,    15,    16,    74,    73,    75,    76
    20,    16,    15,    19,    20,    76,    75,    77,    78
** ... 492 like lines cut
*MATERIAL,NAME=EL
*ELASTIC
210000.,.0
*DENSITY
7.8E-9
*SOLID SECTION,ELSET=Eall,MATERIAL=EL
*NSET,NSET=Ns1 
1, 
2, 
3, 
4, 
5, 
6, 
7, 
8, 
9, 
10, 
11, 
12, 
13, 
14, 
15, 
16, 
17, 
18, 
19, 
20, 
** ... 558 like lines cut
*ELSET,ELSET=Es1 
1, 
2, 
3, 
4, 
5, 
6, 
7, 
8, 
9, 
10, 
11, 
12, 
13, 
14, 
15, 
16, 
17, 
18, 
19, 
20, 
** ... 236 like lines cut
*NSET,NSET=Ns2 
579, 
580, 
581, 
582, 
583, 
584, 
585, 
586, 
587, 
588, 
589, 
590, 
591, 
592, 
593, 
594, 
595, 
596, 
597, 
598, 
** ... 558 like lines cut
*ELSET,ELSET=Es2 
257, 
258, 
259, 
260, 
261, 
262, 
263, 
264, 
265, 
266, 
267, 
268, 
269, 
270, 
271, 
272, 
273, 
274, 
275, 
276, 
** ... 236 like lines cut
*NSET,NSET=Ninds1 
1, 
2, 
5, 
6, 
69, 
70, 
103, 
104, 
137, 
138, 
171, 
172, 
205, 
206, 
239, 
240, 
273, 
274, 
307, 
308, 
** ... 14 like lines cut
*NSET,NSET=Ninds2 
579, 
580, 
583, 
584, 
647, 
648, 
681, 
682, 
715, 
716, 
749, 
750, 
783, 
784, 
817, 
818, 
851, 
852, 
885, 
886, 
** ... 14 like lines cut
*NSET,NSET=Nload 
1123, 
1124, 
1125, 
1126, 
1127, 
1128, 
1129, 
1130, 
1131, 
1132, 
1133, 
1134, 
1135, 
1136, 
1137, 
1138, 
1139, 
1140, 
1141, 
1142, 
** ... 14 like lines cut
*NSET,NSET=Ndeps1 
65, 
66, 
67, 
68, 
101, 
102, 
135, 
136, 
169, 
170, 
203, 
204, 
237, 
238, 
271, 
272, 
305, 
306, 
339, 
340, 
** ... 14 like lines cut
*NSET,NSET=Ndeps2 
643, 
644, 
645, 
646, 
679, 
680, 
713, 
714, 
747, 
748, 
781, 
782, 
815, 
816, 
849, 
850, 
883, 
884, 
917, 
918, 
** ... 14 like lines cut
*NSET,NSET=Nfix3 
1, 
2, 
3, 
4, 
5, 
6, 
7, 
8, 
9, 
10, 
11, 
12, 
13, 
14, 
15, 
16, 
17, 
18, 
19, 
20, 
** ... 1068 like lines cut
*ELSET,ELSET=Efix3 
1, 
2, 
3, 
4, 
5, 
6, 
7, 
8, 
9, 
10, 
11, 
12, 
13, 
14, 
15, 
16, 
17, 
18, 
19, 
20, 
** ... 492 like lines cut
*NSET,NSET=Nfixx 
1, 
2, 
3, 
4, 
9, 
10, 
13, 
14, 
17, 
18, 
21, 
22, 
25, 
26, 
29, 
30, 
33, 
34, 
37, 
38, 
** ... 12 like lines cut
*BOUNDARY
Nfix3,3,3
Nfixx,1,2
851,2,2
*SURFACE,NAME=Sinds1,TYPE=NODE
Ninds1
*SURFACE,NAME=Sdeps1,TYPE=NODE
Ndeps1
*TIE, NAME=CS1, CYCLIC SYMMETRY, POSITION TOLERANCE=0.001
Sdeps1,Sinds1
*CYCLIC SYMMETRY MODEL,N=12, TIE=CS1, ELSET=Es1
0.,0.,0.,0.,0.,1.
*SURFACE,NAME=Sinds2,TYPE=NODE
Ninds2
*SURFACE,NAME=Sdeps2,TYPE=NODE
Ndeps2
*TIE, NAME=CS2, CYCLIC SYMMETRY, POSITION TOLERANCE=0.001
Sdeps2,Sinds2
*CYCLIC SYMMETRY MODEL,N=12, TIE=CS2,ELSET=Es2
0.,0.,0.,0.,0.,1.
*SURFACE, NAME=Smast
241, S2
242, S2
243, S2
244, S2
245, S2
246, S2
247, S2
248, S2
249, S2
250, S2
251, S2
252, S2
253, S2
254, S2
255, S2
256, S2
*SURFACE, NAME=Sslav
257, S1
258, S1
259, S1
260, S1
261, S1
262, S1
263, S1
264, S1
265, S1
266, S1
267, S1
268, S1
269, S1
270, S1
271, S1
272, S1
*CONTACT PAIR,INTERACTION=SI1,TYPE=NODE TO SURFACE
Sslav,Smast
*SURFACE INTERACTION,NAME=SI1
*SURFACE BEHAVIOR,PRESSURE-OVERCLOSURE=LINEAR
1.e7,3.
*STEP,NLGEOM
*STATIC
1.,1.
*DLOAD
497, P2, 100.000000
497, P2, 100.000000 
498, P2, 100.000000
498, P2, 100.000000 
499, P2, 100.000000
499, P2, 100.000000 
500, P2, 100.000000
500, P2, 100.000000 
501, P2, 100.000000
501, P2, 100.000000 
502, P2, 100.000000
502, P2, 100.000000 
503, P2, 100.000000
503, P2, 100.000000 
504, P2, 100.000000
504, P2, 100.000000 
505, P2, 100.000000
505, P2, 100.000000 
506, P2, 100.000000
506, P2, 100.000000 
** ... 12 like lines cut
*NODE FILE
U
*CONTACT FILE
CDISP,CSTRESS
*END STEP
