**
**   Structure: disk segment
**   Test objective: cyclic symmetry with 
**                   face based surfaces
**   The first four eigenfrequencies correspond to
**   rigid body modes. They are small compared to
**   the other eigenfrequencies, however, their values
**   highly depend on the computer system
**                   
*HEADING
Model: segment
*NODE, NSET=Nall
       1,  1.00000e-01,  1.00000e+00, -3.72529e-09 
       2,  1.00000e-01,  9.25000e-01, -3.72529e-09 
       3,  1.00000e-01,  9.17088e-01,  1.20737e-01 
       4,  1.00000e-01,  9.91447e-01,  1.30526e-01 
       5,  5.00000e-02,  1.00000e+00, -3.72529e-09 
       6,  5.00000e-02,  9.25000e-01, -3.72529e-09 
       7,  5.00000e-02,  9.17088e-01,  1.20737e-01 
       8,  5.00000e-02,  9.91447e-01,  1.30526e-01 
       9,  1.00000e-01,  9.62500e-01, -3.72529e-09 
      10,  1.00000e-01,  9.23021e-01,  6.04979e-02 
      11,  1.00000e-01,  9.54268e-01,  1.25631e-01 
      12,  1.00000e-01,  9.97861e-01,  6.54032e-02 
      13,  7.50000e-02,  1.00000e+00, -3.72529e-09 
      14,  7.50000e-02,  9.25000e-01, -3.72529e-09 
      15,  7.50000e-02,  9.17088e-01,  1.20737e-01 
      16,  7.50000e-02,  9.91447e-01,  1.30526e-01 
      17,  5.00000e-02,  9.62500e-01, -3.72529e-09 
      18,  5.00000e-02,  9.23021e-01,  6.04979e-02 
      19,  5.00000e-02,  9.54268e-01,  1.25631e-01 
      20,  5.00000e-02,  9.97861e-01,  6.54032e-02 
** ... 641 like lines cut
*ELEMENT, TYPE=C3D20, ELSET=Eall
     1,     1,     2,     3,     4,     5,     6,     7,     8,     9,    10,
          11,    12,    17,    18,    19,    20,    13,    14,    15,    16
     2,     2,    21,    22,     3,     6,    23,    24,     7,    25,    26,
          27,    10,    30,    31,    32,    18,    14,    28,    29,    15
     3,    21,    33,    34,    22,    23,    35,    36,    24,    37,    38,
          39,    26,    42,    43,    44,    31,    28,    40,    41,    29
     4,    33,    45,    46,    34,    35,    47,    48,    36,    49,    50,
          51,    38,    54,    55,    56,    43,    40,    52,    53,    41
     5,    45,    57,    58,    46,    47,    59,    60,    48,    61,    62,
          63,    50,    66,    67,    68,    55,    52,    64,    65,    53
     6,    57,    69,    70,    58,    59,    71,    72,    60,    73,    74,
          75,    62,    78,    79,    80,    67,    64,    76,    77,    65
     7,    69,    81,    82,    70,    71,    83,    84,    72,    85,    86,
          87,    74,    90,    91,    92,    79,    76,    88,    89,    77
     8,    81,    93,    94,    82,    83,    95,    96,    84,    97,    98,
          99,    86,   102,   103,   104,    91,    88,   100,   101,    89
     9,    93,   105,   106,    94,    95,   107,   108,    96,   109,   110,
         111,    98,   114,   115,   116,   103,   100,   112,   113,   101
    10,   105,   117,   118,   106,   107,   119,   120,   108,   121,   122,
         123,   110,   126,   127,   128,   115,   112,   124,   125,   113
** ... 172 like lines cut
*MATERIAL,NAME=EL
*ELASTIC
210000.,.3
*DENSITY
7.8E-9
*SOLID SECTION,ELSET=Eall,MATERIAL=EL
*NSET,NSET=Nleft 
1, 
153, 
145, 
129, 
133, 
117, 
121, 
105, 
109, 
93, 
97, 
81, 
85, 
69, 
73, 
57, 
61, 
45, 
49, 
33, 
** ... 81 like lines cut
*NSET,NSET=Nright 
523, 
612, 
600, 
590, 
593, 
583, 
586, 
576, 
579, 
569, 
572, 
562, 
565, 
555, 
558, 
548, 
551, 
541, 
544, 
534, 
** ... 81 like lines cut
** Surfaces based on left
*SURFACE, NAME=Sleft
1, S3
2, S3
13, S3
14, S3
3, S3
15, S3
4, S3
16, S3
5, S3
17, S3
6, S3
18, S3
7, S3
19, S3
8, S3
20, S3
9, S3
21, S3
10, S3
22, S3
** ... 4 like lines cut
** Surfaces based on right
*SURFACE, NAME=Sright
73, S5
74, S5
85, S5
86, S5
75, S5
87, S5
76, S5
88, S5
77, S5
89, S5
78, S5
90, S5
79, S5
91, S5
80, S5
92, S5
81, S5
93, S5
82, S5
94, S5
** ... 4 like lines cut
*SURFACE,NAME=left,TYPE=NODE
Nleft
*SURFACE,NAME=right,TYPE=NODE
Nright
*TIE,CYCLIC SYMMETRY,POSITION TOLERANCE=1.,NAME=T1
Sleft,Sright
*CYCLIC SYMMETRY MODEL,N=12,NGRAPH=12
0.,0.,0.,1.,0.,0.
*STEP
*FREQUENCY
10
*SELECT CYCLIC SYMMETRY MODES,NMIN=1,NMAX=1
*END STEP
