**
**   Structure: disk segment
**   Test objective: cyclic symmetry
**                   incompatible sides
**                   
*HEADING
Model: segment
*Node,NSET=Nall
1, 0, 1, 0
2, 0.030974858, 1, 0
3, 0.064735015, 1, 0
4, 0.1, 1, 0
5, 0, 0.99938389, 0.034368336
6, 0, 0.99711785, 0.074448832
7, 0, 0.99282005, 0.11858035
8, 0, 0.98598866, 0.16650042
9, 0, 0.97415159, 0.22581263
10, 0, 0.95635828, 0.29210355
11, 0, 0.93708439, 0.34896431
12, 0, 0.91792093, 0.39643576
13, 0, 0.90084838, 0.43389074
14, 0, 0.88302067, 0.46926444
15, 0, 0.86603, 0.5
16, 0.030974858, 0.86603, 0.5
17, 0.064735015, 0.86603, 0.5
18, 0.1, 0.86603, 0.5
19, 0.1, 0.99945795, 0.032860549
20, 0.1, 0.99759396, 0.068641775
** ... 2736 like lines cut
*Element, type=C3D10, ELSET=Eall
1, 133, 37, 30, 214, 658, 640, 641, 
1510, 1001, 1511
2, 252, 211, 359, 251, 1123, 1513, 1512, 
1125, 1121, 1514
3, 377, 257, 412, 376, 1515, 1519, 1517, 
1516, 1518, 1520
4, 255, 376, 387, 388, 1521, 1525, 1523, 
1522, 1524, 1526
5, 243, 255, 272, 376, 1195, 1215, 1213, 
1527, 1521, 1528
6, 399, 410, 375, 387, 1529, 1533, 1531, 
1530, 1532, 1534
7, 342, 364, 441, 440, 1535, 1539, 1537, 
1536, 1538, 1540
8, 159, 293, 364, 316, 1541, 1544, 1543, 
1542, 1384, 1545
9, 457, 13, 12, 213, 1546, 471, 1548, 
1547, 996, 995
10, 213, 253, 442, 229, 1127, 1550, 1549, 
1111, 1128, 1551
** ... 2958 like lines cut
*MATERIAL,NAME=EL
*ELASTIC
210000.,.3
*DENSITY
7.8E-9
*SOLID SECTION,ELSET=Eall,MATERIAL=EL
*NSET,NSET=Nleft 
1, 
2, 
3, 
4, 
29, 
30, 
31, 
32, 
33, 
34, 
35, 
36, 
37, 
38, 
39, 
40, 
41, 
42, 
43, 
44, 
** ... 278 like lines cut
*NSET,NSET=Nright 
15, 
16, 
17, 
18, 
76, 
77, 
78, 
79, 
80, 
81, 
82, 
83, 
84, 
85, 
86, 
87, 
88, 
89, 
90, 
91, 
** ... 215 like lines cut
*SURFACE,NAME=left,TYPE=NODE
Nleft
*SURFACE,NAME=right,TYPE=NODE
Nright
*TIE,POSITION TOLERANCE=0.001,CYCLIC SYMMETRY,NAME=T1
left,right
*CYCLIC SYMMETRY MODEL,N=12,NGRAPH=2
0.,0.,0.,1.,0.,0.
*STEP
*FREQUENCY
10
*SELECT CYCLIC SYMMETRY MODES,NMIN=1,NMAX=1
*END STEP
