*NODE, NSET=Nall
       1,1.000000000000e+01,-1.496992000000e+01,2.014445400000e+02
       2,7.500000000000e+00,-1.746931250000e+01,2.011961675000e+02
       3,7.500000000000e+00,-1.246158234584e+01,2.015833314400e+02
       4,1.000000000000e+01,-1.039582579041e+01,2.017323140512e+02
       5,1.000000000000e+01,-1.489580500000e+01,2.004472900000e+02
       6,7.500000000000e+00,-1.738282625000e+01,2.002001475000e+02
       7,7.500000000000e+00,-1.239988913639e+01,2.005853970181e+02
       8,1.000000000000e+01,-1.034435753969e+01,2.007336419419e+02
       9,7.500000000000e+00,-7.445235000000e+00,2.018429850000e+02
      10,1.000000000000e+01,-5.816380000000e+00,2.019162400000e+02
      11,7.500000000000e+00,-7.408377500000e+00,2.008437675000e+02
      12,1.000000000000e+01,-5.787585000000e+00,2.009166600000e+02
      13,1.000000000000e+01,-1.482169000000e+01,1.994500400000e+02
      14,7.500000000000e+00,-1.729634000000e+01,1.992041275000e+02
      15,7.500000000000e+00,-1.233819592730e+01,1.995874625969e+02
      16,1.000000000000e+01,-1.029288928932e+01,1.997349698333e+02
      17,7.500000000000e+00,-7.371520000000e+00,1.998445500000e+02
      18,1.000000000000e+01,-5.758790000000e+00,1.999170800000e+02
      19,5.000000000000e+00,-1.996870500000e+01,2.009477950000e+02
      20,5.000000000000e+00,-1.452733890122e+01,2.014343488288e+02
** ... 981 like lines cut
*ELEMENT, TYPE=C3D8, ELSET=Eall
     1,     1,     2,     3,     4,     5,     6,     7,     8
     2,     4,     3,     9,    10,     8,     7,    11,    12
     3,     5,     6,     7,     8,    13,    14,    15,    16
     4,     8,     7,    11,    12,    16,    15,    17,    18
     5,     2,    19,    20,     3,     6,    21,    22,     7
     6,     3,    20,    23,     9,     7,    22,    24,    11
     7,     6,    21,    22,     7,    14,    25,    26,    15
     8,     7,    22,    24,    11,    15,    26,    27,    17
     9,    19,    28,    29,    20,    21,    30,    31,    22
    10,    20,    29,    32,    23,    22,    31,    33,    24
    11,    21,    30,    31,    22,    25,    34,    35,    26
    12,    22,    31,    33,    24,    26,    35,    36,    27
    13,    28,    37,    38,    29,    30,    39,    40,    31
    14,    29,    38,    41,    32,    31,    40,    42,    33
    15,    30,    39,    40,    31,    34,    43,    44,    35
    16,    31,    40,    42,    33,    35,    44,    45,    36
    17,    46,    47,    48,    49,    50,    51,    52,    53
    18,    49,    48,    54,    55,    53,    52,    56,    57
    19,    50,    51,    52,    53,    58,    59,    60,    61
    20,    53,    52,    56,    57,    61,    60,    62,    63
** ... 604 like lines cut
*MATERIAL,NAME=C355
*ELASTIC
.75E5,0.3
*DENSITY
2.65E-9
*SOLID SECTION,ELSET=Eall,MATERIAL=C355
** Surfaces based on CYC1
*SURFACE, NAME=SCYC1
17, S3
25, S3
19, S3
27, S3
21, S3
29, S3
23, S3
31, S3
225, S3
233, S3
33, S3
35, S3
37, S3
39, S3
241, S3
41, S3
43, S3
45, S3
47, S3
249, S3
** ... 28 like lines cut
** Surfaces based on CYC2
*SURFACE, NAME=SCYC2
178, S5
186, S5
180, S5
188, S5
182, S5
190, S5
184, S5
192, S5
386, S5
394, S5
194, S5
196, S5
198, S5
200, S5
402, S5
202, S5
204, S5
206, S5
208, S5
410, S5
** ... 28 like lines cut
*TIE,NAME=TIE1,CYCLIC SYMMETRY
SCYC1,SCYC2
*CYCLIC SYMMETRY MODEL,N=72, NGRAPH=1
0.,0.,0., 1.,0.,0.
** Names based on spcy
*NSET,NSET=Nspcy 
354, 
365, 
375, 
** Names based on spcx
*NSET,NSET=Nspcx 
72, 
89, 
104, 
282, 
294, 
304, 
352, 
364, 
374, 
*DESIGNVARIABLES,TYPE=COORDINATE
Nall
*STEP
*STATIC
*DLOAD
Eall, CENTRIF, 9869604.4,  0., 0., 0.,  1., 0., 0.
*BOUNDARY
Nspcx,1
Nspcy,2
*END STEP
*STEP
*FREQUENCY,STORAGE=YES
10
*SELECT CYCLIC SYMMETRY MODES,NMIN=1,NMAX=1
*END STEP
*STEP
*SENSITIVITY
*OBJECTIVE
EIGENFREQUENCY
*FILTER,EDGE PRESERVATION=YES
*NODE FILE
SEN
*END STEP
