**
**   Structure: cantilever shell.
**   Test objective: rotational boundaries on a rotated structure
**                   cf. shell6
**
*NODE, NSET=Nall
       1,-2.500000089936e-01,1.464466041384e-01,-2.499999984569e-01
       2,1.035533868680e-01,1.464466041384e-01,-6.035533943185e-01
       3,3.535533905933e-01,5.000000000000e-01,-3.535533905933e-01
       4,-5.268355640631e-09,5.000000000000e-01,5.268355592834e-09
       5,-7.322330842863e-02,1.464466041384e-01,-4.267766990219e-01
       6,2.285533905933e-01,3.232233047034e-01,-4.785533905932e-01
       7,1.767766952966e-01,5.000000000000e-01,-1.767766952966e-01
       8,-1.250000052683e-01,3.232233047034e-01,-1.249999947316e-01
       9,6.035533905933e-01,8.535533905933e-01,-1.035533905933e-01
      10,2.499999947317e-01,8.535533905933e-01,2.500000052684e-01
      11,4.785533905932e-01,6.767766952966e-01,-2.285533905933e-01
      12,4.267766952967e-01,8.535533905933e-01,7.322330470338e-02
      13,1.249999947316e-01,6.767766952966e-01,1.250000052683e-01
      14,4.571067774613e-01,1.464466041384e-01,-9.571067849118e-01
      15,7.071067811865e-01,5.000000000000e-01,-7.071067811865e-01
      16,2.803300821646e-01,1.464466041384e-01,-7.803300896152e-01
      17,5.821067811866e-01,3.232233047034e-01,-8.321067811865e-01
      18,5.303300858899e-01,5.000000000000e-01,-5.303300858899e-01
      19,9.571067811866e-01,8.535533905933e-01,-4.571067811865e-01
      20,8.321067811865e-01,6.767766952966e-01,-5.821067811866e-01
      21,7.803300858899e-01,8.535533905933e-01,-2.803300858899e-01
*ELEMENT, TYPE=S8R, ELSET=Eall
     1,      1,      2,      3,      4,      5,      6,      7,      8
     2,      4,      3,      9,     10,      7,     11,     12,     13
     3,      2,     14,     15,      3,     16,     17,     18,      6
     4,      3,     15,     19,      9,     18,     20,     21,     11
*NSET,NSET=Nfixx 
1, 
4, 
8, 
10, 
13, 
*BOUNDARY
Nfixx,1,6
Nfixx,3,6
4,2,2
*MATERIAL,NAME=EL
*ELASTIC
210000,.3
*EXPANSION
12.E-6
*SHELL SECTION,ELSET=Eall,MATERIAL=EL
0.01
*STEP
*STATIC
*BOUNDARY
15,4,4,0.0070711
15,6,6,-0.0070711
*NODE FILE,OUTPUT=2D
U
*END STEP











