**
**   Structure: cantilever shell.
**   Test objective: rotational boundaries on a rotated structure
**                   cf. shell7 and shell7rot2
**                   
*NODE, NSET=Nall
       1,-7.450579986301e-09,1.464466041384e-01,-3.535533958616e-01
       2,5.000000000000e-01,1.464466041384e-01,-3.535533958616e-01
       3,5.000000000000e-01,5.000000000000e-01,0.000000000000e+00
       4,-7.450579986301e-09,5.000000000000e-01,0.000000000000e+00
       5,2.500000000000e-01,1.464466041384e-01,-3.535533958616e-01
       6,5.000000000000e-01,3.232233047034e-01,-1.767766952966e-01
       7,2.500000000000e-01,5.000000000000e-01,0.000000000000e+00
       8,-7.450579986301e-09,3.232233047034e-01,-1.767766952966e-01
       9,5.000000000000e-01,8.535533905933e-01,3.535533905933e-01
      10,-7.450579986301e-09,8.535533905933e-01,3.535533905933e-01
      11,5.000000000000e-01,6.767766952966e-01,1.767766952966e-01
      12,2.500000000000e-01,8.535533905933e-01,3.535533905933e-01
      13,-7.450579986301e-09,6.767766952966e-01,1.767766952966e-01
      14,1.000000000000e+00,1.464466041384e-01,-3.535533958616e-01
      15,1.000000000000e+00,5.000000000000e-01,0.000000000000e+00
      16,7.500000000000e-01,1.464466041384e-01,-3.535533958616e-01
      17,1.000000000000e+00,3.232233047034e-01,-1.767766952966e-01
      18,7.500000000000e-01,5.000000000000e-01,0.000000000000e+00
      19,1.000000000000e+00,8.535533905933e-01,3.535533905933e-01
      20,1.000000000000e+00,6.767766952966e-01,1.767766952966e-01
      21,7.500000000000e-01,8.535533905933e-01,3.535533905933e-01
*ELEMENT, TYPE=S8R, ELSET=Eall
     1,      1,      2,      3,      4,      5,      6,      7,      8
     2,      4,      3,      9,     10,      7,     11,     12,     13
     3,      2,     14,     15,      3,     16,     17,     18,      6
     4,      3,     15,     19,      9,     18,     20,     21,     11
*NSET,NSET=Nfixx 
1, 
4, 
8, 
10, 
13, 
*BOUNDARY
Nfixx,1,6
Nfixx,3,6
4,2,2
*MATERIAL,NAME=EL
*ELASTIC
210000,.3
*EXPANSION
12.E-6
*SHELL SECTION,ELSET=Eall,MATERIAL=EL
0.01
*STEP
*STATIC
*BOUNDARY
15,4,4,.01
15,5,5,1.4142e-2
*NODE FILE,OUTPUT=2D
U
*END STEP











