**
**   Structure: cantilever shell.
**   Test objective: composite materials (S6-element)
**
*NODE, NSET=Nall
1,1.000000000000e+03,0.000000000000e+00,0.000000000000e+00
2,9.090909090909e+02,0.000000000000e+00,0.000000000000e+00
3,1.000000000000e+03,9.090909090909e+01,0.000000000000e+00
4,9.545454545455e+02,0.000000000000e+00,0.000000000000e+00
5,9.545454545455e+02,4.545454545455e+01,0.000000000000e+00
6,1.000000000000e+03,4.545454545455e+01,0.000000000000e+00
7,9.090909090909e+02,9.090909090909e+01,0.000000000000e+00
8,9.090909090909e+02,4.545454545455e+01,0.000000000000e+00
9,9.545454545455e+02,9.090909090909e+01,0.000000000000e+00
10,1.000000000000e+03,1.818181818182e+02,0.000000000000e+00
11,9.545454545455e+02,1.363636363636e+02,0.000000000000e+00
12,1.000000000000e+03,1.363636363636e+02,0.000000000000e+00
13,9.090909090909e+02,1.818181818182e+02,0.000000000000e+00
14,9.090909090909e+02,1.363636363636e+02,0.000000000000e+00
15,9.545454545455e+02,1.818181818182e+02,0.000000000000e+00
16,1.000000000000e+03,2.727272727273e+02,0.000000000000e+00
17,9.545454545455e+02,2.272727272727e+02,0.000000000000e+00
18,1.000000000000e+03,2.272727272727e+02,0.000000000000e+00
19,9.090909090909e+02,2.727272727273e+02,0.000000000000e+00
20,9.090909090909e+02,2.272727272727e+02,0.000000000000e+00
** ... 509 like lines cut
*ELEMENT, TYPE=S6, ELSET=Eall
1,      1,      2,      3,      4,      5,      6
2,      3,      2,      7,      5,      8,      9
3,      3,      7,     10,      9,     11,     12
4,     10,      7,     13,     11,     14,     15
5,     10,     13,     16,     15,     17,     18
6,     16,     13,     19,     17,     20,     21
7,     16,     19,     22,     21,     23,     24
8,     22,     19,     25,     23,     26,     27
9,     22,     25,     28,     27,     29,     30
10,     28,     25,     31,     29,     32,     33
11,     28,     31,     34,     33,     35,     36
12,     34,     31,     37,     35,     38,     39
13,     34,     37,     40,     39,     41,     42
14,     40,     37,     43,     41,     44,     45
15,     40,     43,     46,     45,     47,     48
16,     46,     43,     49,     47,     50,     51
17,     46,     49,     52,     51,     53,     54
18,     52,     49,     55,     53,     56,     57
19,     52,     55,     58,     57,     59,     60
20,     58,     55,     61,     59,     62,     63
** ... 222 like lines cut
*NSET,NSET=Nmaterial1
1,
2,
3,
4,
5,
6,
7,
8,
9,
10,
11,
12,
13,
14,
15,
16,
17,
18,
19,
20,
** ... 509 like lines cut
*ELSET,ELSET=Ematerial1
1,
2,
3,
4,
5,
6,
7,
8,
9,
10,
11,
12,
13,
14,
15,
16,
17,
18,
19,
20,
** ... 222 like lines cut
*BOUNDARY
484, 1, ,
484, 2, ,
1, 2, ,
1, 3, ,
2, 3, ,
3, 3, ,
4, 3, ,
6, 3, ,
10, 3, ,
12, 3, ,
16, 3, ,
18, 3, ,
22, 3, ,
24, 3, ,
28, 3, ,
30, 3, ,
34, 3, ,
36, 3, ,
40, 3, ,
42, 3, ,
** ... 71 like lines cut
*ELSET,ELSET=Epart
71,72,121,122
*NSET,NSET=Npart 
123, 
127, 
128, 
169, 
171, 
172, 
173, 
174, 
175, 
227, 
231, 
232, 
273, 
275, 
276, 
277, 
278, 
279, 
*ORIENTATION,NAME=OR1,SYSTEM=RECTANGULAR
1,0,0,0,1,0
*ORIENTATION,NAME=OR2,SYSTEM=RECTANGULAR
0,1,0,-1,0,0
*ORIENTATION,NAME=OR3,SYSTEM=RECTANGULAR
1,1,0,-1,1,0
*ORIENTATION,NAME=OR4,SYSTEM=RECTANGULAR
1,-1,0,1,1,0
*MATERIAL,NAME=MATERIAL1
*ELASTIC,TYPE=ENGINEERING CONSTANTS
181000,10300,1000000,0.28,0,0,7150,5958.3333
5958.3333,295.
*INITIAL CONDITIONS,TYPE=TEMPERATURE
NALL, 295.00
*SHELL SECTION,ELSET=Eall,COMPOSITE
2.5,,MATERIAL1,OR1
2.5,,MATERIAL1,OR2
2.5,,MATERIAL1,OR2
2.5,,MATERIAL1,OR1
*STEP
*STATIC
*DLOAD
1, P, 0.001000
2, P, 0.001000
23, P, 0.001000
3, P, 0.001000
4, P, 0.001000
25, P, 0.001000
24, P, 0.001000
5, P, 0.001000
6, P, 0.001000
27, P, 0.001000
26, P, 0.001000
7, P, 0.001000
8, P, 0.001000
29, P, 0.001000
28, P, 0.001000
9, P, 0.001000
10, P, 0.001000
31, P, 0.001000
30, P, 0.001000
11, P, 0.001000
** ... 222 like lines cut
*NODE PRINT,NSET=Npart,GLOBAL=NO
U
*EL PRINT,ELSET=Epart,GLOBAL=NO
S
*END STEP
