**
**   Structure: cantilever beam, one element
**   Test objective: B32R elements.
**
*NODE,NSET=Nall
1, 0, 0, 0
2, 0, 0, 5
3, 0, 0, 10
*ELEMENT,TYPE=B32R,ELSET=EAll
1,1,2,3
*BOUNDARY
3,1,6
*MATERIAL,NAME=ALUM
*ELASTIC
1E7,.3
*BEAM SECTION,ELSET=EAll,MATERIAL=ALUM,SECTION=RECT
.25,.25
1.d0,0.d0,0.d0
*STEP
*STATIC
*CLOAD
1,1,1.
*EL PRINT,ELSET=Eall,FREQUENCY=100
S
*NODE FILE,OUTPUT=2D
U
*EL FILE,SECTION FORCES
S,NOE
*EL PRINT,ELSET=EAll,TOTALS=YES
EVOL
*END STEP
