**
**   Structure: cantilever shell connected to solid.
**   Test objective: fixed connection shell-solid.
**
*NODE, NSET=Nall
       1,  1.00000e+00,  1.00000e+00, -7.45058e-09 
       2,  1.00000e+00,  5.00000e-01, -7.45058e-09 
       3,  1.00000e+00,  5.00000e-01,  5.00000e-01 
       4,  1.00000e+00,  1.00000e+00,  5.00000e-01 
       5,  5.00000e-01,  1.00000e+00, -7.45058e-09 
       6,  5.00000e-01,  5.00000e-01, -7.45058e-09 
       7,  5.00000e-01,  5.00000e-01,  5.00000e-01 
       8,  5.00000e-01,  1.00000e+00,  5.00000e-01 
       9,  1.00000e+00,  7.50000e-01, -7.45058e-09 
      10,  1.00000e+00,  5.00000e-01,  2.50000e-01 
      11,  1.00000e+00,  7.50000e-01,  5.00000e-01 
      12,  1.00000e+00,  1.00000e+00,  2.50000e-01 
      13,  7.50000e-01,  1.00000e+00, -7.45058e-09 
      14,  7.50000e-01,  5.00000e-01, -7.45058e-09 
      15,  7.50000e-01,  5.00000e-01,  5.00000e-01 
      16,  7.50000e-01,  1.00000e+00,  5.00000e-01 
      17,  5.00000e-01,  7.50000e-01, -7.45058e-09 
      18,  5.00000e-01,  5.00000e-01,  2.50000e-01 
      19,  5.00000e-01,  7.50000e-01,  5.00000e-01 
      20,  5.00000e-01,  1.00000e+00,  2.50000e-01 
** ... 77 like lines cut
*ELEMENT, TYPE=S8R, ELSET=Eshell
     1,      1,      2,      3,      4,      9,     10,     11,     12
     2,      4,      3,     52,     53,     11,     56,     57,     58
     3,      2,     21,     22,      3,     25,     26,     27,     10
     4,      3,     22,     64,     52,     27,     66,     67,     56
     5,      1,      2,     82,     83,      9,     84,     85,     86
     6,     83,     82,     87,     88,     85,     89,     90,     91
     7,      2,     21,     92,     82,     25,     93,     94,     84
     8,     82,     92,     95,     87,     94,     96,     97,     89
*ELEMENT, TYPE=C3D20, ELSET=Esolid
     9,     1,     2,     3,     4,     5,     6,     7,     8,     9,    10,
          11,    12,    17,    18,    19,    20,    13,    14,    15,    16
    10,     2,    21,    22,     3,     6,    23,    24,     7,    25,    26,
          27,    10,    30,    31,    32,    18,    14,    28,    29,    15
    11,     5,     6,     7,     8,    33,    34,    35,    36,    17,    18,
          19,    20,    41,    42,    43,    44,    37,    38,    39,    40
    12,     6,    23,    24,     7,    34,    45,    46,    35,    30,    31,
          32,    18,    49,    50,    51,    42,    38,    47,    48,    39
    13,     4,     3,    52,    53,     8,     7,    54,    55,    11,    56,
          57,    58,    19,    61,    62,    63,    16,    15,    59,    60
    14,     3,    22,    64,    52,     7,    24,    65,    54,    27,    66,
          67,    56,    32,    69,    70,    61,    15,    29,    68,    59
    15,     8,     7,    54,    55,    36,    35,    71,    72,    19,    61,
          62,    63,    43,    75,    76,    77,    40,    39,    73,    74
    16,     7,    24,    65,    54,    35,    46,    78,    71,    32,    69,
          70,    61,    51,    80,    81,    75,    39,    48,    79,    73
*ELSET,ELSET=Eall
Esolid,Eshell
*MATERIAL,NAME=EL
*ELASTIC
210000.,.3
*SOLID SECTION,ELSET=Esolid,MATERIAL=EL
*SHELL SECTION,ELSET=Eshell,MATERIAL=EL
0.05
*NSET,NSET=Nfix 
33, 
34, 
35, 
36, 
41, 
42, 
43, 
44, 
45, 
46, 
49, 
50, 
51, 
71, 
72, 
75, 
76, 
77, 
78, 
80, 
81, 
*NSET,NSET=Ndisp 
87, 
88, 
90, 
95, 
97, 
*BOUNDARY
Nfix,1,3
**
*STEP,NLGEOM
*STATIC
*BOUNDARY
Ndisp,3,3,0.1
*NODE PRINT,NSET=Nall
U
*EL PRINT,ELSET=Eall,GLOBAL=YES
S
*END STEP
