**
**   Structure: cantilever beam.
**   Test objective: submodel: calculation of
**                   section forces
**
*HEADING
Model: beam     Date: 10-Mar-1998
*NODE, NSET=Nall
       1,0.000000000000e+00,0.000000000000e+00,0.000000000000e+00
       2,1.000000000000e+00,0.000000000000e+00,0.000000000000e+00
       3,1.000000000000e+00,1.000000000000e+00,0.000000000000e+00
       4,0.000000000000e+00,1.000000000000e+00,0.000000000000e+00
       5,0.000000000000e+00,0.000000000000e+00,8.000000000000e-01
       6,1.000000000000e+00,0.000000000000e+00,8.000000000000e-01
       7,1.000000000000e+00,1.000000000000e+00,8.000000000000e-01
       8,0.000000000000e+00,1.000000000000e+00,8.000000000000e-01
       9,2.500000000000e-01,0.000000000000e+00,0.000000000000e+00
      10,5.000000000000e-01,0.000000000000e+00,0.000000000000e+00
      11,7.500000000000e-01,0.000000000000e+00,0.000000000000e+00
      12,1.000000000000e+00,2.500000000000e-01,0.000000000000e+00
      13,1.000000000000e+00,5.000000000000e-01,0.000000000000e+00
      14,1.000000000000e+00,7.500000000000e-01,0.000000000000e+00
      15,7.500000000000e-01,1.000000000000e+00,0.000000000000e+00
      16,5.000000000000e-01,1.000000000000e+00,0.000000000000e+00
      17,2.500000000000e-01,1.000000000000e+00,0.000000000000e+00
      18,0.000000000000e+00,7.500000000000e-01,0.000000000000e+00
      19,0.000000000000e+00,5.000000000000e-01,0.000000000000e+00
      20,0.000000000000e+00,2.500000000000e-01,0.000000000000e+00
** ... 241 like lines cut
*ELEMENT, TYPE=C3D20R, ELSET=Eall
     1,     1,    10,    95,    19,    61,   105,   222,   192,     9,    93,
          94,    20,   104,   220,   221,   193,    62,   103,   219,   190
     2,    10,     2,    13,    95,   105,    34,   134,   222,    11,    12,
          96,    93,   106,   133,   223,   220,   103,    33,   132,   219
     3,    19,    95,    16,     4,   192,   222,   163,    79,    94,    97,
          17,    18,   221,   224,   164,   191,   190,   219,   161,    78
     4,    95,    13,     3,    16,   222,   134,    64,   163,    96,    14,
          15,    97,   223,   135,   162,   224,   219,   132,    63,   161
     5,    61,   105,   222,   192,    59,   109,   228,   196,   104,   220,
         221,   193,   108,   226,   227,   197,    60,   107,   225,   194
     6,   105,    34,   134,   222,   109,    36,   138,   228,   106,   133,
         223,   220,   110,   137,   229,   226,   107,    35,   136,   225
     7,   192,   222,   163,    79,   196,   228,   167,    81,   221,   224,
         164,   191,   227,   230,   168,   195,   194,   225,   165,    80
     8,   222,   134,    64,   163,   228,   138,    66,   167,   223,   135,
         162,   224,   229,   139,   166,   230,   225,   136,    65,   165
     9,    59,   109,   228,   196,    57,   113,   234,   200,   108,   226,
         227,   197,   112,   232,   233,   201,    58,   111,   231,   198
    10,   109,    36,   138,   228,   113,    38,   142,   234,   110,   137,
         229,   226,   114,   141,   235,   232,   111,    37,   140,   231
** ... 44 like lines cut
*MATERIAL,NAME=EL
*ELASTIC
  210000.0,        .3
*SOLID SECTION,ELSET=Eall,MATERIAL=EL
*NSET,NSET=Nsectionforce 
5, 
6, 
7, 
8, 
21, 
22, 
23, 
24, 
25, 
26, 
27, 
28, 
29, 
30, 
31, 
32, 
98, 
99, 
100, 
101, 
102, 
*SUBMODEL,TYPE=NODE,INPUT=beamp.frd.ref
Nall
*STEP
*STATIC
*BOUNDARY,SUBMODEL,STEP=1
Nall,1,3
*NODE PRINT,NSET=Nsectionforce,totals=yes
RF
*END STEP
