**
**   Structure: swing.
**   Test objective: B32 elements, different orientations
**                   of the 1-coordinate-axis.
**
*NODE, NSET=Nall
       1, -7.45058e-09, -1.49012e-08,  0.00000e+00 
       2,  1.25000e-01,  5.00000e-01,  0.00000e+00 
       3,  6.25000e-02,  2.50000e-01,  0.00000e+00 
       4,  2.50000e-01,  1.00000e+00,  0.00000e+00 
       5,  1.87500e-01,  7.50000e-01,  0.00000e+00 
       6,  3.75000e-01,  1.50000e+00,  0.00000e+00 
       7,  3.12500e-01,  1.25000e+00,  0.00000e+00 
       8,  5.00000e-01,  2.00000e+00,  0.00000e+00 
       9,  4.37500e-01,  1.75000e+00,  0.00000e+00 
      10,  6.25000e-01,  1.50000e+00,  0.00000e+00 
      11,  5.62500e-01,  1.75000e+00,  0.00000e+00 
      12,  7.50000e-01,  1.00000e+00,  0.00000e+00 
      13,  6.87500e-01,  1.25000e+00,  0.00000e+00 
      14,  8.75000e-01,  5.00000e-01,  0.00000e+00 
      15,  8.12500e-01,  7.50000e-01,  0.00000e+00 
      16,  1.00000e+00, -1.49012e-08,  0.00000e+00 
      17,  9.37500e-01,  2.50000e-01,  0.00000e+00 
      18, -7.45058e-09, -1.49012e-08,  3.00000e+00 
      19,  1.25000e-01,  5.00000e-01,  3.00000e+00 
      20,  6.25000e-02,  2.50000e-01,  3.00000e+00 
** ... 21 like lines cut
*ELEMENT, TYPE=B32, ELSET=Eall
     1,      1,      3,      2
     2,      2,      5,      4
     3,      4,      7,      6
     4,      6,      9,      8
     5,      8,     11,     10
     6,     10,     13,     12
     7,     12,     15,     14
     8,     14,     17,     16
     9,     18,     20,     19
    10,     19,     22,     21
    11,     21,     24,     23
    12,     23,     26,     25
    13,     25,     28,     27
    14,     27,     30,     29
    15,     29,     32,     31
    16,     31,     34,     33
    17,     25,     36,     35
    18,     35,     38,     37
    19,     37,     40,     39
    20,     39,     41,      8
*BOUNDARY
1,1,6
16,1,6
18,1,6
33,1,6
*MATERIAL,NAME=EL
*ELASTIC
210000.,.3
*ELSET,ELSET=Eleg 
1, 
2, 
3, 
4, 
5, 
6, 
7, 
8, 
9, 
10, 
11, 
12, 
13, 
14, 
15, 
16, 
*ELSET,ELSET=Ehori 
17, 
18, 
19, 
20, 
*BEAM SECTION,ELSET=Eleg,MATERIAL=EL,SECTION=RECT
0.05
0.,0.,1.
*BEAM SECTION,ELSET=Ehori,MATERIAL=EL,SECTION=RECT
0.05
0.,1.,0.
**
*STEP,NLGEOM
*STATIC
*CLOAD
37,2,-0.001
*NODE PRINT,NSET=Nall
U
*EL PRINT,ELSET=Eall
S
*END STEP
