**
**   Structure: cantilever beam.
**   Test objective: conduction starting from a 
**                   temperature discontinuity
**
*HEADING
Model: beam     Date: 10-Mar-1998
*NODE,NSET=Nall
     1,      0.000000,      0.000000,      0.000000
     2,      1.000000,      0.000000,      0.000000
     3,      1.000000,      1.000000,      0.000000
     4,      0.000000,      1.000000,      0.000000
     5,      0.000000,      0.000000,      8.000000
     6,      1.000000,      0.000000,      8.000000
     7,      1.000000,      1.000000,      8.000000
     8,      0.000000,      1.000000,      8.000000
     9,      0.250000,      0.000000,      0.000000
    10,      0.500000,      0.000000,      0.000000
    11,      0.750000,      0.000000,      0.000000
    12,      1.000000,      0.250000,      0.000000
    13,      1.000000,      0.500000,      0.000000
    14,      1.000000,      0.750000,      0.000000
    15,      0.750000,      1.000000,      0.000000
    16,      0.500000,      1.000000,      0.000000
    17,      0.250000,      1.000000,      0.000000
    18,      0.000000,      0.750000,      0.000000
    19,      0.000000,      0.500000,      0.000000
    20,      0.000000,      0.250000,      0.000000
** ... 241 like lines cut
*ELEMENT, TYPE=C3D8, ELSET=Eall
1,3,66,81,4,2,36,59,1
2,66,70,85,81,36,40,55,59
3,70,7,8,85,40,6,5,55
*EQUATION
2
2,11,1.,1,11,-1.
2
3,11,1.,1,11,-1.
2
4,11,1.,1,11,-1.
2
36,11,1.,59,11,-1.
2
66,11,1.,59,11,-1.
2
81,11,1.,59,11,-1.
2
40,11,1.,55,11,-1.
2
70,11,1.,55,11,-1.
2
85,11,1.,55,11,-1.
2
6,11,1.,5,11,-1.
** ... 4 like lines cut
*NSET,NSET=Nnucleus
1, 
2, 
3, 
4, 
9, 
10, 
11, 
12, 
13, 
14, 
15, 
16, 
17, 
18, 
19, 
20, 
33, 
34, 
35, 
36, 
** ... 121 like lines cut
*NSET,NSET=Nrest
5, 
6, 
7, 
8, 
21, 
22, 
23, 
24, 
25, 
26, 
27, 
28, 
29, 
30, 
31, 
32, 
41, 
42, 
43, 
44, 
** ... 100 like lines cut
*MATERIAL,NAME=EL
*CONDUCTIVITY
50.,0.
*SPECIFIC HEAT
446.E6
*DENSITY
7.8E-9
*SOLID SECTION,ELSET=Eall,MATERIAL=EL
*NSET,NSET=LOAD
5
*INITIAL CONDITIONS,TYPE=TEMPERATURE
Nnucleus,1.
Nrest,0.
*STEP
*HEAT TRANSFER
1.e-6,1.e-1
*BOUNDARY
LOAD,11,11,0.
*NODE FILE
NT
*END STEP
