**
**   Structure: two cantilever beams.
**   Test objective: *UNCOUPLED TEMPERATURE-DISPLACEMENT
**                   followed by a *HEAT TRANSFER and
**                   *STATIC step
**
*HEADING
Model: 2 beams    Date: 10-Sept-2004
*NODE, NSET=Nall
       1,  1.00000e+00,  1.00000e+00,  0.00000e+00 
       2,  1.00000e+00,  5.00000e-01,  0.00000e+00 
       3,  1.00000e+00,  5.00000e-01,  1.00000e+00 
       4,  1.00000e+00,  1.00000e+00,  1.00000e+00 
       5,  5.00000e-01,  1.00000e+00,  0.00000e+00 
       6,  5.00000e-01,  5.00000e-01,  0.00000e+00 
       7,  5.00000e-01,  5.00000e-01,  1.00000e+00 
       8,  5.00000e-01,  1.00000e+00,  1.00000e+00 
       9,  1.00000e+00,  7.50000e-01,  0.00000e+00 
      10,  1.00000e+00,  5.00000e-01,  5.00000e-01 
      11,  1.00000e+00,  7.50000e-01,  1.00000e+00 
      12,  1.00000e+00,  1.00000e+00,  5.00000e-01 
      13,  7.50000e-01,  1.00000e+00,  0.00000e+00 
      14,  7.50000e-01,  5.00000e-01,  0.00000e+00 
      15,  7.50000e-01,  5.00000e-01,  1.00000e+00 
      16,  7.50000e-01,  1.00000e+00,  1.00000e+00 
      17,  5.00000e-01,  7.50000e-01,  0.00000e+00 
      18,  5.00000e-01,  5.00000e-01,  5.00000e-01 
      19,  5.00000e-01,  7.50000e-01,  1.00000e+00 
      20,  5.00000e-01,  1.00000e+00,  5.00000e-01 
** ... 502 like lines cut
*ELEMENT, TYPE=C3D20, ELSET=Eall
     1,     1,     2,     3,     4,     5,     6,     7,     8,     9,    10,
          11,    12,    17,    18,    19,    20,    13,    14,    15,    16
     2,     2,    21,    22,     3,     6,    23,    24,     7,    25,    26,
          27,    10,    30,    31,    32,    18,    14,    28,    29,    15
     3,     5,     6,     7,     8,    33,    34,    35,    36,    17,    18,
          19,    20,    41,    42,    43,    44,    37,    38,    39,    40
     4,     6,    23,    24,     7,    34,    45,    46,    35,    30,    31,
          32,    18,    49,    50,    51,    42,    38,    47,    48,    39
     5,     4,     3,    52,    53,     8,     7,    54,    55,    11,    56,
          57,    58,    19,    61,    62,    63,    16,    15,    59,    60
     6,     3,    22,    64,    52,     7,    24,    65,    54,    27,    66,
          67,    56,    32,    69,    70,    61,    15,    29,    68,    59
     7,     8,     7,    54,    55,    36,    35,    71,    72,    19,    61,
          62,    63,    43,    75,    76,    77,    40,    39,    73,    74
     8,     7,    24,    65,    54,    35,    46,    78,    71,    32,    69,
          70,    61,    51,    80,    81,    75,    39,    48,    79,    73
     9,    53,    52,    82,    83,    55,    54,    84,    85,    57,    86,
          87,    88,    62,    91,    92,    93,    60,    59,    89,    90
    10,    52,    64,    94,    82,    54,    65,    95,    84,    67,    96,
          97,    86,    70,    99,   100,    91,    59,    68,    98,    89
** ... 108 like lines cut
*NSET,NSET=Nfix 
1, 
2, 
5, 
6, 
9, 
13, 
14, 
17, 
21, 
23, 
25, 
28, 
30, 
33, 
34, 
37, 
38, 
41, 
45, 
47, 
** ... 22 like lines cut
*NSET,NSET=Nt0 
262, 
263, 
264, 
265, 
270, 
271, 
272, 
273, 
282, 
283, 
286, 
287, 
288, 
313, 
314, 
317, 
318, 
319, 
325, 
327, 
** ... 49 like lines cut
*NSET,NSET=Nt1000 
33, 
34, 
35, 
36, 
41, 
42, 
43, 
44, 
45, 
46, 
49, 
50, 
51, 
71, 
72, 
75, 
76, 
77, 
78, 
80, 
** ... 49 like lines cut
*BOUNDARY
Nfix,3,3
45,1,2
306,1,2
33,1,1
294,1,1
*MATERIAL,NAME=EL
*CONDUCTIVITY
50.,0.
*ELASTIC
210000.,.3
*EXPANSION
25.E-6
*DENSITY
7.8E-9
*SPECIFIC HEAT
446.E6
*SOLID SECTION,ELSET=Eall,MATERIAL=EL
*INITIAL CONDITIONS,TYPE=TEMPERATURE
Nall,0.
*PHYSICAL CONSTANTS,ABSOLUTE ZERO=-273.15,STEFAN BOLTZMANN=5.669E-8
*STEP,NLGEOM
*UNCOUPLED TEMPERATURE-DISPLACEMENT,STEADY STATE
.5,1.
*CONTROLS,PARAMETERS=TIME INCREMENTATION
6,16,9,32,20,4,,5,,,
0.25,0.5,0.75,,,,1.5,,
*BOUNDARY
Nt0,11,11,0.
Nt1000,11,11,500.
*RADIATE
35, R2CR,0., 9.000000e-01 
36, R2CR,0., 9.000000e-01 
39, R2CR,0., 9.000000e-01 
40, R2CR,0., 9.000000e-01 
43, R2CR,0., 9.000000e-01 
44, R2CR,0., 9.000000e-01 
47, R2CR,0., 9.000000e-01 
48, R2CR,0., 9.000000e-01 
51, R2CR,0., 9.000000e-01 
52, R2CR,0., 9.000000e-01 
55, R2CR,0., 9.000000e-01 
56, R2CR,0., 9.000000e-01 
59, R2CR,0., 9.000000e-01 
60, R2CR,0., 9.000000e-01 
63, R2CR,0., 9.000000e-01 
64, R2CR,0., 9.000000e-01 
1, R1CR,0., 9.000000e-01 
2, R1CR,0., 9.000000e-01 
5, R1CR,0., 9.000000e-01 
6, R1CR,0., 9.000000e-01 
** ... 12 like lines cut
*NODE PRINT,NSET=Nall,FREQUENCY=2
NT,RFL,U
*EL PRINT,ELSET=Eall,FREQUENCY=2
HFL,S
*END STEP
*STEP
*HEAT TRANSFER
1.,1.
*BOUNDARY
Nt1000,11,11,600.
*NODE PRINT,NSET=Nall
U
*EL PRINT,ELSET=Eall
*END STEP
*STEP
*STATIC
1.,1.
*NODE PRINT,NSET=Nall
U
*END STEP
