**
**   Structure: truss, two elements
**   Test objective: T3D2 elements.
**
*NODE,NSET=Nall
1, 0, 0, 0
2, 5, 0, 5
3, 0, 0, 10
*ELEMENT,TYPE=T3D2,ELSET=EAll
1,1,2
2,2,3
*BOUNDARY
1,1,3
3,1,3
*MATERIAL,NAME=ALUM
*ELASTIC
1E7,.3
*SOLID SECTION,ELSET=EAll,MATERIAL=ALUM
.0625
*STEP
*STATIC
*CLOAD
2,1,1.
*EL PRINT,ELSET=Eall,FREQUENCY=100
S
*NODE FILE,OUTPUT=3D
U
*EL FILE
S,NOE
*END STEP
