**
**   Structure: heating wire above plane
**   Test objective: radiation with beam elements
**
*NODE, NSET=Nall
       1,  1.00000e+00,  0.00000e+00,  0.00000e+00 
       2,  8.00000e-01,  0.00000e+00,  0.00000e+00 
       3,  8.00000e-01,  2.00000e-01,  0.00000e+00 
       4,  1.00000e+00,  2.00000e-01,  0.00000e+00 
       5,  9.00000e-01,  0.00000e+00,  0.00000e+00 
       6,  8.00000e-01,  1.00000e-01,  0.00000e+00 
       7,  9.00000e-01,  2.00000e-01,  0.00000e+00 
       8,  1.00000e+00,  1.00000e-01,  0.00000e+00 
       9,  8.00000e-01,  4.00000e-01,  0.00000e+00 
      10,  1.00000e+00,  4.00000e-01,  0.00000e+00 
      11,  8.00000e-01,  3.00000e-01,  0.00000e+00 
      12,  9.00000e-01,  4.00000e-01,  0.00000e+00 
      13,  1.00000e+00,  3.00000e-01,  0.00000e+00 
      14,  8.00000e-01,  6.00000e-01,  0.00000e+00 
      15,  1.00000e+00,  6.00000e-01,  0.00000e+00 
      16,  8.00000e-01,  5.00000e-01,  0.00000e+00 
      17,  9.00000e-01,  6.00000e-01,  0.00000e+00 
      18,  1.00000e+00,  5.00000e-01,  0.00000e+00 
      19,  8.00000e-01,  8.00000e-01,  0.00000e+00 
      20,  1.00000e+00,  8.00000e-01,  0.00000e+00 
** ... 87 like lines cut
*ELEMENT, TYPE=B32, ELSET=Eall
     1,     97,     99,     98
     2,     98,    101,    100
     3,    100,    103,    102
     4,    102,    105,    104
     5,    104,    107,    106
*ELEMENT, TYPE=S8, ELSET=Eall
     6,      1,      2,      3,      4,      5,      6,      7,      8
     7,      4,      3,      9,     10,      7,     11,     12,     13
     8,     10,      9,     14,     15,     12,     16,     17,     18
     9,     15,     14,     19,     20,     17,     21,     22,     23
    10,     20,     19,     24,     25,     22,     26,     27,     28
    11,      2,     29,     30,      3,     31,     32,     33,      6
    12,      3,     30,     34,      9,     33,     35,     36,     11
    13,      9,     34,     37,     14,     36,     38,     39,     16
    14,     14,     37,     40,     19,     39,     41,     42,     21
    15,     19,     40,     43,     24,     42,     44,     45,     26
    16,     29,     46,     47,     30,     48,     49,     50,     32
    17,     30,     47,     51,     34,     50,     52,     53,     35
    18,     34,     51,     54,     37,     53,     55,     56,     38
    19,     37,     54,     57,     40,     56,     58,     59,     41
    20,     40,     57,     60,     43,     59,     61,     62,     44
    21,     46,     63,     64,     47,     65,     66,     67,     49
    22,     47,     64,     68,     51,     67,     69,     70,     52
    23,     51,     68,     71,     54,     70,     72,     73,     55
    24,     54,     71,     74,     57,     73,     75,     76,     58
    25,     57,     74,     77,     60,     76,     78,     79,     61
** ... 5 like lines cut
*NSET,NSET=Nwire 
97, 
98, 
99, 
100, 
101, 
102, 
103, 
104, 
105, 
106, 
107, 
*ELSET,ELSET=Ewire 
1, 
2, 
3, 
4, 
5, 
*ELSET,ELSET=Eplate,GENERATE
6,30
*PHYSICAL CONSTANTS,ABSOLUTE ZERO=0.,STEFAN BOLTZMANN=5.669E-8
*MATERIAL,NAME=STEEL
*DENSITY
7800.
*CONDUCTIVITY
50.
*SPECIFIC HEAT
446.
*BEAM SECTION,ELSET=Ewire,MATERIAL=STEEL,SECTION=RECT
0.01,0.01
*SHELL SECTION,ELSET=Eplate,MATERIAL=STEEL
0.01
*INITIAL CONDITIONS,TYPE=TEMPERATURE
Nall,300.
*STEP,INC=100
*HEAT TRANSFER,STEADY STATE
1.,1.
*BOUNDARY
Nwire,11,11,1000.
*RADIATE
1,R1CR,300.,1.
2,R1CR,300.,1.
3,R1CR,300.,1.
4,R1CR,300.,1.
5,R1CR,300.,1.
1,R2CR,300.,1.
2,R2CR,300.,1.
3,R2CR,300.,1.
4,R2CR,300.,1.
5,R2CR,300.,1.
1,R3CR,300.,1.
2,R3CR,300.,1.
3,R3CR,300.,1.
4,R3CR,300.,1.
5,R3CR,300.,1.
1,R5CR,300.,1.
2,R5CR,300.,1.
3,R5CR,300.,1.
4,R5CR,300.,1.
5,R5CR,300.,1.
** ... 50 like lines cut
*EL PRINT,ELSET=Eall,GLOBAL=YES
HFL
*END STEP
