**
**   Structure: three cantilever beams.
**   Test objective: cavity radiation
**
*NODE, NSET=Nall
       1,  2.00000e+00,  5.00000e-01, -5.96046e-08 
       2,  1.50000e+00,  5.00000e-01, -5.96046e-08 
       3,  1.50000e+00,  5.00000e-01,  1.00000e-00 
       4,  2.00000e+00,  5.00000e-01,  1.00000e-00 
       5,  2.00000e+00,  1.00000e+00, -5.96046e-08 
       6,  1.50000e+00,  1.00000e+00, -5.96046e-08 
       7,  1.50000e+00,  1.00000e+00,  1.00000e-00 
       8,  2.00000e+00,  1.00000e+00,  1.00000e-00 
       9,  1.75000e+00,  5.00000e-01, -5.96046e-08 
      10,  1.50000e+00,  5.00000e-01,  5.00000e-01 
      11,  1.75000e+00,  5.00000e-01,  1.00000e-00 
      12,  2.00000e+00,  5.00000e-01,  5.00000e-01 
      13,  2.00000e+00,  7.50000e-01, -5.96046e-08 
      14,  1.50000e+00,  7.50000e-01, -5.96046e-08 
      15,  1.50000e+00,  7.50000e-01,  1.00000e-00 
      16,  2.00000e+00,  7.50000e-01,  1.00000e-00 
      17,  1.75000e+00,  1.00000e+00, -5.96046e-08 
      18,  1.50000e+00,  1.00000e+00,  5.00000e-01 
      19,  1.75000e+00,  1.00000e+00,  1.00000e-00 
      20,  2.00000e+00,  1.00000e+00,  5.00000e-01 
** ... 475 like lines cut
*ELEMENT, TYPE=C3D20, ELSET=Eall
     1,     1,     2,     3,     4,     5,     6,     7,     8,     9,    10,
          11,    12,    17,    18,    19,    20,    13,    14,    15,    16
     2,     2,    21,    22,     3,     6,    23,    24,     7,    25,    26,
          27,    10,    30,    31,    32,    18,    14,    28,    29,    15
     3,     4,     3,    33,    34,     8,     7,    35,    36,    11,    37,
          38,    39,    19,    42,    43,    44,    16,    15,    40,    41
     4,     3,    22,    45,    33,     7,    24,    46,    35,    27,    47,
          48,    37,    32,    50,    51,    42,    15,    29,    49,    40
     5,    34,    33,    52,    53,    36,    35,    54,    55,    38,    56,
          57,    58,    43,    61,    62,    63,    41,    40,    59,    60
     6,    33,    45,    64,    52,    35,    46,    65,    54,    48,    66,
          67,    56,    51,    69,    70,    61,    40,    49,    68,    59
     7,    53,    52,    71,    72,    55,    54,    73,    74,    57,    75,
          76,    77,    62,    80,    81,    82,    60,    59,    78,    79
     8,    52,    64,    83,    71,    54,    65,    84,    73,    67,    85,
          86,    75,    70,    88,    89,    80,    59,    68,    87,    78
     9,    72,    71,    90,    91,    74,    73,    92,    93,    76,    94,
          95,    96,    81,    99,   100,   101,    79,    78,    97,    98
    10,    71,    83,   102,    90,    73,    84,   103,    92,    86,   104,
         105,    94,    89,   107,   108,    99,    78,    87,   106,    97
** ... 76 like lines cut
*NSET,NSET=Nup 
5, 
6, 
7, 
8, 
17, 
18, 
19, 
20, 
23, 
24, 
30, 
31, 
32, 
35, 
36, 
42, 
43, 
44, 
46, 
50, 
** ... 49 like lines cut
*NSET,NSET=Ndo 
166, 
167, 
168, 
169, 
174, 
175, 
176, 
177, 
186, 
187, 
190, 
191, 
192, 
198, 
199, 
202, 
203, 
204, 
210, 
212, 
** ... 49 like lines cut
*PHYSICAL CONSTANTS,ABSOLUTE ZERO=-273.15,STEFAN BOLTZMANN=5.669E-8
*MATERIAL,NAME=EL
*DENSITY
7.8E-9
*CONDUCTIVITY
50.,0.
*SPECIFIC HEAT
446.E6
*SOLID SECTION,ELSET=Eall,MATERIAL=EL
*INITIAL CONDITIONS,TYPE=TEMPERATURE
Nall,20.
*STEP,INC=100
*HEAT TRANSFER
1.e-4,10.
*BOUNDARY
Nup,11,11,1000.
Ndo,11,11,20.
*RADIATE
1, R1CR,,1. 
2, R1CR,,1. 
3, R1CR,,1. 
4, R1CR,,1. 
5, R1CR,,1. 
6, R1CR,,1. 
7, R1CR,,1. 
8, R1CR,,1. 
9, R1CR,,1. 
10, R1CR,,1. 
11, R1CR,,1. 
12, R1CR,,1. 
13, R1CR,,1. 
14, R1CR,,1. 
15, R1CR,,1. 
16, R1CR,,1. 
17, R2CR,,1. 
18, R2CR,,1. 
19, R2CR,,1. 
20, R2CR,,1. 
** ... 45 like lines cut
*NODE PRINT,NSET=Nall,FREQUENCY=30
NT
*EL PRINT,ELSET=Eall,FREQUENCY=30
HFL
*END STEP
