**
**   Structure: Cantilever beam under tensile forces
**   Test Objective: Nonlinear dynamic response of a plastic material;
**                   material; explicit procedure
**
*HEADING
Model: beam     Date: 10-Mar-1998
*NODE
     1,      0.000000,      0.000000,      0.000000
     2,      1.000000,      0.000000,      0.000000
     3,      1.000000,      1.500000,      0.000000
     4,      0.000000,      1.500000,      0.000000
     5,      0.000000,      0.000000,      8.000000
     6,      1.000000,      0.000000,      8.000000
     7,      1.000000,      1.500000,      8.000000
     8,      0.000000,      1.500000,      8.000000
     9,      0.250000,      0.000000,      0.000000
    10,      0.500000,      0.000000,      0.000000
    11,      0.750000,      0.000000,      0.000000
    12,      1.000000,      0.375000,      0.000000
    13,      1.000000,      0.750000,      0.000000
    14,      1.000000,      1.125000,      0.000000
    15,      0.750000,      1.500000,      0.000000
    16,      0.500000,      1.500000,      0.000000
    17,      0.250000,      1.500000,      0.000000
    18,      0.000000,      1.125000,      0.000000
    19,      0.000000,      0.750000,      0.000000
    20,      0.000000,      0.375000,      0.000000
** ... 241 like lines cut
*ELEMENT, TYPE=C3D8, ELSET=Eall
     1,     1,    10,    95,    19,    61,   105,   222,   192
     2,    10,     2,    13,    95,   105,    34,   134,   222
     3,    19,    95,    16,     4,   192,   222,   163,    79
     4,    95,    13,     3,    16,   222,   134,    64,   163
     5,    61,   105,   222,   192,    59,   109,   228,   196
     6,   105,    34,   134,   222,   109,    36,   138,   228
     7,   192,   222,   163,    79,   196,   228,   167,    81
     8,   222,   134,    64,   163,   228,   138,    66,   167
     9,    59,   109,   228,   196,    57,   113,   234,   200
    10,   109,    36,   138,   228,   113,    38,   142,   234
    11,   196,   228,   167,    81,   200,   234,   171,    83
    12,   228,   138,    66,   167,   234,   142,    68,   171
    13,    57,   113,   234,   200,    55,   117,   240,   204
    14,   113,    38,   142,   234,   117,    40,   146,   240
    15,   200,   234,   171,    83,   204,   240,   175,    85
    16,   234,   142,    68,   171,   240,   146,    70,   175
    17,    55,   117,   240,   204,    53,   121,   246,   208
    18,   117,    40,   146,   240,   121,    42,   150,   246
    19,   204,   240,   175,    85,   208,   246,   179,    87
    20,   240,   146,    70,   175,   246,   150,    72,   179
** ... 12 like lines cut
** Names based on fix
*NSET,NSET=Nfix 
1, 
2, 
3, 
4, 
10, 
13, 
16, 
19, 
95, 
*BOUNDARY
1,1,2
2,2,2
Nfix, 3
*ELSET,ELSET=EALL,GENERATE
1,32
*MATERIAL,NAME=EL
*ELASTIC
  210000.0,        .3
*PLASTIC
15.,0.
4050.,1.
*DENSITY
7.8E-9
*SOLID SECTION,MATERIAL=EL,ELSET=EALL
*NSET,NSET=N1
100
*STEP,INC=100000,NLGEOM
*DYNAMIC,EXPLICIT
1.E-8,5.E-6
*DLOAD
29,P2,-100.
30,P2,-100.
31,P2,-100.
32,P2,-100.
*NODE PRINT,NSET=N1
U
*END STEP

