**
**   Structure: channel connecting two reservoirs.
**   Test objective: inflexion - White-Colebrook 
**                   length calculated from coordinates
**                   example from Chanson, p 283
**
*NODE, NSET=Nall
       1,1.999000000000e+02,2.443947000000e-03,0.000000000000e+00
       2,2.000000000000e+02,0.000000000000e+00,0.000000000000e+00
       3,1.999500000000e+02,1.221973500000e-03,0.000000000000e+00
       4,9.999999999999e-02,4.885450770000e+00,0.000000000000e+00
       5,5.811306906825e+00,4.745869435694e+00,0.000000000000e+00
       6,2.955653453412e+00,4.815660102847e+00,0.000000000000e+00
       7,1.300881361449e+01,4.569966160609e+00,0.000000000000e+00
       8,9.410060260658e+00,4.657917798151e+00,0.000000000000e+00
       9,2.207925995051e+01,4.348289226943e+00,0.000000000000e+00
      10,1.754403678250e+01,4.459127693776e+00,0.000000000000e+00
      11,3.351002341851e+01,4.068927385069e+00,0.000000000000e+00
      12,2.779464168451e+01,4.208608306006e+00,0.000000000000e+00
      13,4.791530719627e+01,3.716869832647e+00,0.000000000000e+00
      14,4.071266530739e+01,3.892898608858e+00,0.000000000000e+00
      15,6.606914279077e+01,3.273199647103e+00,0.000000000000e+00
      16,5.699222499352e+01,3.495034739875e+00,0.000000000000e+00
      17,8.894698066447e+01,2.714077332625e+00,0.000000000000e+00
      18,7.750806172762e+01,2.993638489864e+00,0.000000000000e+00
      19,1.177781035999e+02,2.009459865114e+00,0.000000000000e+00
      20,1.033625421322e+02,2.361768598869e+00,0.000000000000e+00
** ... 11 like lines cut
*ELEMENT, TYPE=D, ELSET=Eall
     1,      1,      3,      2
     2,      4,      6,      5
     3,      5,      8,      7
     4,      7,     10,      9
     5,      9,     12,     11
     6,     11,     14,     13
     7,     13,     16,     15
     8,     15,     18,     17
     9,     17,     20,     19
    10,     19,     22,     21
    11,     21,     23,      1
    12,     24,     25,      4
    13,     26,     27,     24
    14,      0,     29,     26
    15,      2,     31,      0
*MATERIAL,NAME=WATER
*DENSITY
1000.
*FLUID CONSTANTS
4217.,1750.E-6,273.
*ELSET,ELSET=E1
14,15
*ELSET,ELSET=E2
13
*ELSET,ELSET=E3
12
*ELSET,ELSET=E4
2,3,4,5,6,7,8,9,10,11
*ELSET,ELSET=E5
1
*FLUID SECTION,ELSET=E1,TYPE=CHANNEL INOUT,MATERIAL=WATER
*FLUID SECTION,ELSET=E2,TYPE=CHANNEL SLUICE GATE,MATERIAL=WATER
3.5,0.02443,10.,,12
*FLUID SECTION,ELSET=E3,TYPE=CHANNEL SLUICE OPENING,MATERIAL=WATER
3.5,0.02443,-1.,0.,2.e-3,13
*FLUID SECTION,ELSET=E4,TYPE=CHANNEL STRAIGHT,MATERIAL=WATER
3.5,0.02443,-1.,0.,2.e-3,13
*FLUID SECTION,ELSET=E5,TYPE=CHANNEL RESERVOIR,MATERIAL=WATER
3.5,0.02443,-1.,0.,2.e-3,13
*BOUNDARY
2,2,2,0.001
*BOUNDARY,MASS FLOW
29,1,1,5000.
*STEP
*HEAT TRANSFER,STEADY STATE
*DLOAD
Eall,GRAV,9.81,0.,0.,-1.
*NODE PRINT,NSET=NALL
U
*END STEP

