*NODE, NSET=Nall
       1,1.000000000000e+01,0.000000000000e+00,0.000000000000e+00
       2,9.000000000000e+00,0.000000000000e+00,0.000000000000e+00
       3,9.000000000000e+00,1.000000000000e+00,0.000000000000e+00
       4,1.000000000000e+01,1.000000000000e+00,0.000000000000e+00
       5,9.500000000000e+00,0.000000000000e+00,0.000000000000e+00
       6,9.000000000000e+00,5.000000000000e-01,0.000000000000e+00
       7,9.500000000000e+00,1.000000000000e+00,0.000000000000e+00
       8,1.000000000000e+01,5.000000000000e-01,0.000000000000e+00
       9,8.000000000000e+00,0.000000000000e+00,0.000000000000e+00
      10,8.000000000000e+00,1.000000000000e+00,0.000000000000e+00
      11,8.500000000000e+00,0.000000000000e+00,0.000000000000e+00
      12,8.000000000000e+00,5.000000000000e-01,0.000000000000e+00
      13,8.500000000000e+00,1.000000000000e+00,0.000000000000e+00
      14,7.000000000000e+00,0.000000000000e+00,0.000000000000e+00
      15,7.000000000000e+00,1.000000000000e+00,0.000000000000e+00
      16,7.500000000000e+00,0.000000000000e+00,0.000000000000e+00
      17,7.000000000000e+00,5.000000000000e-01,0.000000000000e+00
      18,7.500000000000e+00,1.000000000000e+00,0.000000000000e+00
      19,6.000000000000e+00,0.000000000000e+00,0.000000000000e+00
      20,6.000000000000e+00,1.000000000000e+00,0.000000000000e+00
** ... 33 like lines cut
*ELEMENT, TYPE=S8R, ELSET=Eall
     1,      1,      2,      3,      4,      5,      6,      7,      8
     2,      2,      9,     10,      3,     11,     12,     13,      6
     3,      9,     14,     15,     10,     16,     17,     18,     12
     4,     14,     19,     20,     15,     21,     22,     23,     17
     5,     19,     24,     25,     20,     26,     27,     28,     22
     6,     24,     29,     30,     25,     31,     32,     33,     27
     7,     29,     34,     35,     30,     36,     37,     38,     32
     8,     34,     39,     40,     35,     41,     42,     43,     37
     9,     39,     44,     45,     40,     46,     47,     48,     42
    10,     44,     49,     50,     45,     51,     52,     53,     47
** Names based on left
*NSET,NSET=Nleft 
49, 
50, 
52, 
** Names based on right
*NSET,NSET=Nright 
1, 
4, 
8, 
*MATERIAL,NAME=COMPRESSION_ONLY
*USER MATERIAL,CONSTANTS=2
  1.4e10,        1.e5
*DENSITY
2350.
*MATERIAL,NAME=STEEL
*ELASTIC
210000.e6,.3
*DENSITY
7800.
*SHELL SECTION,ELSET=Eall,COMPOSITE
.09,,COMPRESSION_ONLY
.01,,STEEL
.1,,COMPRESSION_ONLY
.1,,COMPRESSION_ONLY
.1,,COMPRESSION_ONLY
.1,,COMPRESSION_ONLY
.1,,COMPRESSION_ONLY
.1,,COMPRESSION_ONLY
.1,,COMPRESSION_ONLY
.1,,COMPRESSION_ONLY
.1,,COMPRESSION_ONLY
*BOUNDARY
Nleft,1,6
*STEP,NLGEOM
*STATIC
1.,1.
*DLOAD
Eall,GRAV,9.81,0.,0.,-1.
*NODE FILE
U
*EL FILE
S,NOE
*END STEP
