**
**   Structure: 2d Couette incompressible concentric fluid flow
**              4 layers in circumferential direction
**   Test objective: CFD Finite Volume Method with cyclic symmetry
**                   inner wall: tangential velocity 2, temperature 1.
**                   outer wall: tangential velocity 1, temperature 1.
**                   viscous stress and heat flux output in a 
**                   local cylindrical system
**   Analytical solution: v proportional to 1/r
**                        T (r=0.75) = 1.467
**                        p difference inner/outer wall = 1.5
**
*NODE, NSET=Nall
       1,-1.000000000000e+00,0.000000000000e+00,0.000000000000e+00
       2,-9.807852804032e-01,1.950903220161e-01,0.000000000000e+00
       3,-9.807852804032e-01,1.950903220161e-01,1.000000000000e-01
       4,-1.000000000000e+00,0.000000000000e+00,1.000000000000e-01
       5,-8.750000000000e-01,0.000000000000e+00,0.000000000000e+00
       6,-8.581871203528e-01,1.707040317641e-01,-2.220446049250e-16
       7,-8.581871203528e-01,1.707040317641e-01,1.000000000000e-01
       8,-8.750000000000e-01,0.000000000000e+00,1.000000000000e-01
       9,-7.500000000000e-01,0.000000000000e+00,0.000000000000e+00
      10,-7.355889603024e-01,1.463177415121e-01,5.551115123126e-17
      11,-7.355889603024e-01,1.463177415121e-01,1.000000000000e-01
      12,-7.500000000000e-01,0.000000000000e+00,1.000000000000e-01
      13,-6.250000000000e-01,0.000000000000e+00,0.000000000000e+00
      14,-6.129908002520e-01,1.219314512601e-01,0.000000000000e+00
      15,-6.129908002520e-01,1.219314512601e-01,1.000000000000e-01
      16,-6.250000000000e-01,0.000000000000e+00,1.000000000000e-01
      17,-5.000000000000e-01,0.000000000000e+00,0.000000000000e+00
      18,-4.903926402016e-01,9.754516100806e-02,0.000000000000e+00
      19,-4.903926402016e-01,9.754516100806e-02,1.000000000000e-01
      20,-5.000000000000e-01,0.000000000000e+00,1.000000000000e-01
** ... 30 like lines cut
*ELEMENT, TYPE=F3D8R, ELSET=Eall
     1,     1,     2,     3,     4,     5,     6,     7,     8
     2,     5,     6,     7,     8,     9,    10,    11,    12
     3,     9,    10,    11,    12,    13,    14,    15,    16
     4,    13,    14,    15,    16,    17,    18,    19,    20
     5,     2,    21,    22,     3,     6,    23,    24,     7
     6,     6,    23,    24,     7,    10,    25,    26,    11
     7,    10,    25,    26,    11,    14,    27,    28,    15
     8,    14,    27,    28,    15,    18,    29,    30,    19
     9,    21,    31,    32,    22,    23,    33,    34,    24
    10,    23,    33,    34,    24,    25,    35,    36,    26
    11,    25,    35,    36,    26,    27,    37,    38,    28
    12,    27,    37,    38,    28,    29,    39,    40,    30
    13,    31,    41,    42,    32,    33,    43,    44,    34
    14,    33,    43,    44,    34,    35,    45,    46,    36
    15,    35,    45,    46,    36,    37,    47,    48,    38
    16,    37,    47,    48,    38,    39,    49,    50,    40
*SURFACE, NAME=SOLIDSURFACE
1, S1
5, S1
4, S2
8, S2
9, S1
12, S2
13, S1
16, S2
*TRANSFORMF,TYPE=C,SURFACE=SOLIDSURFACE
0.,0.,0.,0.,0.,1.
*MATERIAL,NAME=WATER
*DENSITY
1.
*FLUID CONSTANTS
1.,1.
*CONDUCTIVITY
1.
*SOLID SECTION,ELSET=Eall,MATERIAL=WATER
*INITIAL CONDITIONS,TYPE=PRESSURE
Nall,1.
*INITIAL CONDITIONS,TYPE=FLUID VELOCITY
Nall,1,0.
Nall,2,0.
Nall,3,0.
*INITIAL CONDITIONS,TYPE=TEMPERATURE
Nall,1.
** Surfaces based on mast
*SURFACE, NAME=Smast
1, S6
2, S6
3, S6
4, S6
** Surfaces based on slav
*SURFACE, NAME=Sslav
13, S4
14, S4
15, S4
16, S4
*TIE,FLUIDCYCLIC,NAME=T1
Sslav,Smast
*CYCLIC SYMMETRY MODEL,TIE=T1,N=8
0.,0.,0.,0.,0.,1.
*STEP,INCF=200
*CFD,STEADY STATE,2D
*BOUNDARYF
4, S2, 1,, 0.000000
4, S2, 2,, 2.000000
4, S2, 3,, 0.000000
4, S2, 11,, 1.000000
8, S2, 1,, 0.000000
8, S2, 2,, 2.000000
8, S2, 3,, 0.000000
8, S2, 11,, 1.000000
12, S2, 1,, 0.000000
12, S2, 2,, 2.000000
12, S2, 3,, 0.000000
12, S2, 11,, 1.000000
16, S2, 1,, 0.000000
16, S2, 2,, 2.000000
16, S2, 3,, 0.000000
16, S2, 11,, 1.000000
1, S1, 1,, 0.000000
1, S1, 2,, 1.000000
1, S1, 3,, 0.000000
1, S1, 11,, 1.000000
** ... 12 like lines cut
*DFLUX
1, S3, 0.000000e+00
5, S3, 0.000000e+00
1, S5, 0.000000e+00
5, S5, 0.000000e+00
2, S3, 0.000000e+00
6, S3, 0.000000e+00
2, S5, 0.000000e+00
6, S5, 0.000000e+00
3, S3, 0.000000e+00
7, S3, 0.000000e+00
3, S5, 0.000000e+00
7, S5, 0.000000e+00
4, S3, 0.000000e+00
8, S3, 0.000000e+00
4, S5, 0.000000e+00
8, S5, 0.000000e+00
9, S3, 0.000000e+00
9, S5, 0.000000e+00
10, S3, 0.000000e+00
10, S5, 0.000000e+00
** ... 12 like lines cut
*MASS FLOW
1, M3, 0.000000e+00
5, M3, 0.000000e+00
1, M5, 0.000000e+00
5, M5, 0.000000e+00
2, M3, 0.000000e+00
6, M3, 0.000000e+00
2, M5, 0.000000e+00
6, M5, 0.000000e+00
3, M3, 0.000000e+00
7, M3, 0.000000e+00
3, M5, 0.000000e+00
7, M5, 0.000000e+00
4, M3, 0.000000e+00
8, M3, 0.000000e+00
4, M5, 0.000000e+00
8, M5, 0.000000e+00
9, M3, 0.000000e+00
9, M5, 0.000000e+00
10, M3, 0.000000e+00
10, M5, 0.000000e+00
** ... 12 like lines cut
*NODE FILE,FREQUENCYF=200
VF,PSF,TSF
*END STEP
