**
**   Structure: two cubes.
**   Test objective: Penalty contact.
**
*NODE, NSET=Nall
       1,1.000000000000e+00,1.000000000000e+00,0.000000000000e+00
       2,1.000000000000e+00,6.666666666667e-01,0.000000000000e+00
       3,1.000000000000e+00,6.666666666667e-01,3.333333333333e-01
       4,1.000000000000e+00,1.000000000000e+00,3.333333333333e-01
       5,6.666666666667e-01,1.000000000000e+00,0.000000000000e+00
       6,6.666666666667e-01,6.666666666667e-01,0.000000000000e+00
       7,6.666666666667e-01,6.666666666667e-01,3.333333333333e-01
       8,6.666666666667e-01,1.000000000000e+00,3.333333333333e-01
       9,1.000000000000e+00,6.666666666667e-01,6.666666666667e-01
      10,1.000000000000e+00,1.000000000000e+00,6.666666666667e-01
      11,6.666666666667e-01,6.666666666667e-01,6.666666666667e-01
      12,6.666666666667e-01,1.000000000000e+00,6.666666666667e-01
      13,1.000000000000e+00,6.666666666667e-01,1.000000000000e+00
      14,1.000000000000e+00,1.000000000000e+00,1.000000000000e+00
      15,6.666666666667e-01,6.666666666667e-01,1.000000000000e+00
      16,6.666666666667e-01,1.000000000000e+00,1.000000000000e+00
      17,3.333333333333e-01,1.000000000000e+00,0.000000000000e+00
      18,3.333333333333e-01,6.666666666667e-01,0.000000000000e+00
      19,3.333333333333e-01,6.666666666667e-01,3.333333333333e-01
      20,3.333333333333e-01,1.000000000000e+00,3.333333333333e-01
** ... 108 like lines cut
*ELEMENT, TYPE=C3D8, ELSET=Eall
     1,     1,     2,     3,     4,     5,     6,     7,     8
     2,     4,     3,     9,    10,     8,     7,    11,    12
     3,    10,     9,    13,    14,    12,    11,    15,    16
     4,     5,     6,     7,     8,    17,    18,    19,    20
     5,     8,     7,    11,    12,    20,    19,    21,    22
     6,    12,    11,    15,    16,    22,    21,    23,    24
     7,    17,    18,    19,    20,    25,    26,    27,    28
     8,    20,    19,    21,    22,    28,    27,    29,    30
     9,    22,    21,    23,    24,    30,    29,    31,    32
    10,     2,    33,    34,     3,     6,    35,    36,     7
    11,     3,    34,    37,     9,     7,    36,    38,    11
    12,     9,    37,    39,    13,    11,    38,    40,    15
    13,     6,    35,    36,     7,    18,    41,    42,    19
    14,     7,    36,    38,    11,    19,    42,    43,    21
    15,    11,    38,    40,    15,    21,    43,    44,    23
    16,    18,    41,    42,    19,    26,    45,    46,    27
    17,    19,    42,    43,    21,    27,    46,    47,    29
    18,    21,    43,    44,    23,    29,    47,    48,    31
    19,    33,    49,    50,    34,    35,    51,    52,    36
    20,    34,    50,    53,    37,    36,    52,    54,    38
** ... 34 like lines cut
*MATERIAL,NAME=EL
*ELASTIC
210000.,.0
*SOLID SECTION,ELSET=Eall,MATERIAL=EL
*NSET,NSET=Nfix 
1, 
2, 
5, 
6, 
17, 
18, 
25, 
26, 
33, 
35, 
41, 
45, 
49, 
51, 
57, 
61, 
*NSET,NSET=Nload 
77, 
78, 
79, 
80, 
87, 
88, 
95, 
96, 
103, 
104, 
108, 
112, 
119, 
120, 
124, 
128, 
*BOUNDARY
Nfix,1,3
Nload,1,2
*SURFACE, NAME=Smast
3, S5 
6, S5 
9, S5 
12, S5 
15, S5 
18, S5 
21, S5 
24, S5 
27, S5 
*SURFACE, NAME=Sslav
28, S3 
31, S3 
34, S3 
37, S3 
40, S3 
43, S3 
46, S3 
49, S3 
52, S3 
*CONTACT PAIR,INTERACTION=SI1,TYPE=NODE TO SURFACE
Sslav,Smast
*SURFACE INTERACTION,NAME=SI1
*SURFACE BEHAVIOR,PRESSURE-OVERCLOSURE=LINEAR
1.e6,3.
*STEP,NLGEOM
*STATIC
1.,1.
*DLOAD
30, P5, 100.000000 
33, P5, 100.000000 
36, P5, 100.000000 
39, P5, 100.000000 
42, P5, 100.000000 
45, P5, 100.000000 
48, P5, 100.000000 
51, P5, 100.000000 
54, P5, 100.000000
*NODE PRINT,NSET=Nall
U 
*NODE FILE
U
*EL FILE,POSITION=NODES
S,NOE
*CONTACT FILE
CDISP,CSTRESS
*END STEP
