**
**   Structure: cube.
**   Test objective: explicit dynamics.
**
*NODE,NSET=Nall
1,0.,0.,0.
2,1.,0.,0.
3,1.,1.,0.
4,0.,1.,0.
5,0.,0.,1.
6,1.,0.,1.
7,1.,1.,1.
8,0.,1.,1.
*ELEMENT,TYPE=C3D8,ELSET=Eall
1,1,2,3,4,5,6,7,8
*EQUATION
2
2,1,1.,1,1,-1.
2
2,2,1.,1,2,-1.
2
2,3,1.,1,3,-1.
2
3,1,1.,1,1,-1.
2
3,2,1.,1,2,-1.
2
3,3,1.,1,3,-1.
2
4,1,1.,1,1,-1.
2
4,2,1.,1,2,-1.
2
4,3,1.,1,3,-1.
2
5,1,1.,1,1,-1.
** ... 22 like lines cut
*MATERIAL,NAME=EL
*ELASTIC
210000.,.3
*DENSITY
1.
*SOLID SECTION,ELSET=Eall,MATERIAL=EL
*INITIAL CONDITIONS,TYPE=DISPLACEMENT
Nall,1,0.
Nall,2,0.
Nall,3,0.
*INITIAL CONDITIONS,TYPE=VELOCITY
Nall,1,0.
Nall,2,0.
Nall,3,0.
*STEP,INC=1000
*DYNAMIC,EXPLICIT
1.,1.
*CLOAD
1,1,1.
*NODE FILE,FREQUENCY=1000
U,V
*END STEP
