**
**   Structure: two blocks.
**   Test objective: slipping friction contact.
**                   use of the iterative scaling solver
**                   for asymmetric matrices
**
**
*NODE, NSET=Nall
       1,1.000000000000e+00,1.000000000000e+00,0.000000000000e+00
       2,1.000000000000e+00,0.000000000000e+00,0.000000000000e+00
       3,1.000000000000e+00,0.000000000000e+00,1.000000000000e+00
       4,1.000000000000e+00,1.000000000000e+00,1.000000000000e+00
       5,0.000000000000e+00,1.000000000000e+00,0.000000000000e+00
       6,0.000000000000e+00,0.000000000000e+00,0.000000000000e+00
       7,0.000000000000e+00,0.000000000000e+00,1.000000000000e+00
       8,0.000000000000e+00,1.000000000000e+00,1.000000000000e+00
       9,-1.000000000000e+00,2.000000000000e+00,0.000000000000e+00
      10,-1.000000000000e+00,-1.000000000000e+00,0.000000000000e+00
      11,-1.000000000000e+00,-1.000000000000e+00,-1.000000000000e+00
      12,-1.000000000000e+00,2.000000000000e+00,-1.000000000000e+00
      13,2.000000000000e+00,2.000000000000e+00,0.000000000000e+00
      14,2.000000000000e+00,-1.000000000000e+00,0.000000000000e+00
      15,2.000000000000e+00,-1.000000000000e+00,-1.000000000000e+00
      16,2.000000000000e+00,2.000000000000e+00,-1.000000000000e+00
*ELEMENT, TYPE=C3D8, ELSET=Eall
     1,     1,     2,     3,     4,     5,     6,     7,     8
     2,     9,    10,    11,    12,    13,    14,    15,    16
*NSET,NSET=Ndisp 
3, 
4, 
7, 
8, 
*SURFACE, NAME=Smast
2, S3 
*SURFACE, NAME=Sslav
1, S3 
*NSET,NSET=Nslav,FREQUENCY=100 
1, 
2, 
5, 
6, 
*NSET,NSET=Nbigcube 
9, 
10, 
11, 
12, 
13, 
14, 
15, 
16, 
*MATERIAL,NAME=EL
*ELASTIC
210000.,0.3
*SOLID SECTION,ELSET=Eall,MATERIAL=EL
*BOUNDARY
Nbigcube,1,3
*CONTACT PAIR,INTERACTION=SI1,TYPE=NODE TO SURFACE
Sslav,Smast
*SURFACE INTERACTION,NAME=SI1
*SURFACE BEHAVIOR,PRESSURE-OVERCLOSURE=LINEAR
1.e7,3.
*FRICTION
0.2,80
*AMPLITUDE,NAME=A1
0.,1.,1.,1.
*STEP,NLGEOM
*STATIC,SOLVER=ITERATIVE SCALING
.05,1.
*DLOAD,AMPLITUDE=A1
1, P5, 100.000000 
*BOUNDARY
Ndisp,1,1,0.00
Ndisp,2,2,0.00
*CONTACT PRINT,NSET=Nslav,FREQUENCY=100
CDISP,CSTRESS
*END STEP
*STEP
*STATIC,SOLVER=ITERATIVE SCALING
.05,1.
*BOUNDARY,OP=NEW
Nbigcube,1,3
Nslav,2,2,1.0
*CONTACT PRINT,NSET=Nslav,FREQUENCY=100
CDISP,CSTRESS
*END STEP
*STEP
*STATIC,SOLVER=ITERATIVE SCALING
.05,1.
*BOUNDARY,OP=NEW
Nbigcube,1,3
Nslav,2,2,-1.0
*CONTACT PRINT,NSET=Nslav,FREQUENCY=100
CDISP,CSTRESS
*END STEP





