**
**   Structure: slender disk mounted on a long axis
**   Test objective: *STEADY STATE DYNAMICS with Coriolis
**
*NODE, NSET=Nall
       1,6.123233995737e-17,1.000000000000e+00,0.000000000000e+00
       2,3.826834323651e-01,9.238795325113e-01,0.000000000000e+00
       3,3.826834323651e-01,9.238795325113e-01,5.000000000000e+00
       4,6.123233995737e-17,1.000000000000e+00,5.000000000000e+00
       5,3.061616997868e-17,5.000000000000e-01,0.000000000000e+00
       6,1.913417161825e-01,4.619397662556e-01,0.000000000000e+00
       7,1.913417161825e-01,4.619397662556e-01,5.000000000000e+00
       8,3.061616997868e-17,5.000000000000e-01,5.000000000000e+00
       9,1.950903220161e-01,9.807852804032e-01,0.000000000000e+00
      10,3.826834323651e-01,9.238795325113e-01,2.500000000000e+00
      11,1.950903220161e-01,9.807852804032e-01,5.000000000000e+00
      12,6.123233995737e-17,1.000000000000e+00,2.500000000000e+00
      13,4.592425496803e-17,7.500000000000e-01,0.000000000000e+00
      14,2.870125742738e-01,6.929096493835e-01,0.000000000000e+00
      15,2.870125742738e-01,6.929096493835e-01,5.000000000000e+00
      16,4.592425496803e-17,7.500000000000e-01,5.000000000000e+00
      17,9.754516100806e-02,4.903926402016e-01,0.000000000000e+00
      18,1.913417161825e-01,4.619397662556e-01,2.500000000000e+00
      19,9.754516100806e-02,4.903926402016e-01,5.000000000000e+00
      20,3.061616997868e-17,5.000000000000e-01,2.500000000000e+00
** ... 2638 like lines cut
*ELEMENT, TYPE=C3D20R, ELSET=Eall
     1,     1,     2,     3,     4,     5,     6,     7,     8,     9,    10,
          11,    12,    17,    18,    19,    20,    13,    14,    15,    16
     2,     4,     3,    21,    22,     8,     7,    23,    24,    11,    25,
          26,    27,    19,    30,    31,    32,    16,    15,    28,    29
     3,    22,    21,    33,    34,    24,    23,    35,    36,    26,    37,
          38,    39,    31,    42,    43,    44,    29,    28,    40,    41
     4,    34,    33,    45,    46,    36,    35,    47,    48,    38,    49,
          50,    51,    43,    54,    55,    56,    41,    40,    52,    53
     5,    46,    45,    57,    58,    48,    47,    59,    60,    50,    61,
          62,    63,    55,    66,    67,    68,    53,    52,    64,    65
     6,    58,    57,    69,    70,    60,    59,    71,    72,    62,    73,
          74,    75,    67,    78,    79,    80,    65,    64,    76,    77
     7,    70,    69,    81,    82,    72,    71,    83,    84,    74,    85,
          86,    87,    79,    90,    91,    92,    77,    76,    88,    89
     8,    82,    81,    93,    94,    84,    83,    95,    96,    86,    97,
          98,    99,    91,   102,   103,   104,    89,    88,   100,   101
     9,    94,    93,   105,   106,    96,    95,   107,   108,    98,   109,
         110,   111,   103,   114,   115,   116,   101,   100,   112,   113
    10,   106,   105,   117,   118,   108,   107,   119,   120,   110,   121,
         122,   123,   115,   126,   127,   128,   113,   112,   124,   125
** ... 716 like lines cut
*NSET,NSET=Nfix 
2657,
2658,
*EQUATION
17
281,1,1.,
206,1,1.,
131,1,1.,
6,1,1.,
5,1,1.,
559,1,1.,
484,1,1.,
359,1,1.,
358,1,1.,
859,1,1.,
784,1,1.,
659,1,1.,
658,1,1.,
1106,1,1.,
1031,1,1.,
956,1,1.,
2657,1,-16.
17
281,2,1.,
** ... 88 like lines cut
*BOUNDARY
Nfix,1,3
279,2
*Solid Section, elset=Eall, material=steel
*Material, name=STEEL
*Elastic
 210000., 0.3
*DENSITY
7.8e-9
*NSET,NSET=N1
2492
** Names based on disk
*Step,nlgeom
*Static
*dload
Eall,centrif,1.e6,0.,0.,0.,0.,0.,1. 
*end step
*step,perturbation
*frequency,STORAGE=YES
 20,
*end step
*step,perturbation
*steady state dynamics
200,600,20,1.
*cload
2492,1,1.
*node print,nset=n1
u
*end step
