**
**   Structure: disk segment
**   Test objective: MPC's in cylindrical coordinates;
**                   leads to cascaded MPC's
**                   
*NODE, NSET=Nall
       1,  1.00000e+00,  1.00000e+00,  0.00000e+00 
       2,  1.00000e+00,  5.50000e-01,  0.00000e+00 
       3,  1.00000e+00,  5.31259e-01,  1.42350e-01 
       4,  1.00000e+00,  9.65926e-01,  2.58819e-01 
       5,  5.00000e-01,  1.00000e+00,  0.00000e+00 
       6,  5.00000e-01,  5.50000e-01,  0.00000e+00 
       7,  5.00000e-01,  5.31259e-01,  1.42350e-01 
       8,  5.00000e-01,  9.65926e-01,  2.58819e-01 
       9,  1.00000e+00,  7.75000e-01,  0.00000e+00 
      10,  1.00000e+00,  5.45295e-01,  7.17894e-02 
      11,  1.00000e+00,  7.48592e-01,  2.00585e-01 
      12,  1.00000e+00,  9.91445e-01,  1.30526e-01 
      13,  7.50000e-01,  1.00000e+00,  0.00000e+00 
      14,  7.50000e-01,  5.50000e-01,  0.00000e+00 
      15,  7.50000e-01,  5.31259e-01,  1.42350e-01 
      16,  7.50000e-01,  9.65926e-01,  2.58819e-01 
      17,  5.00000e-01,  7.75000e-01,  0.00000e+00 
      18,  5.00000e-01,  5.45295e-01,  7.17894e-02 
      19,  5.00000e-01,  7.48592e-01,  2.00585e-01 
      20,  5.00000e-01,  9.91445e-01,  1.30526e-01 
** ... 61 like lines cut
*ELEMENT, TYPE=C3D20R, ELSET=Eall
     1,     1,     2,     3,     4,     5,     6,     7,     8,     9,    10,
          11,    12,    17,    18,    19,    20,    13,    14,    15,    16
     2,     2,    21,    22,     3,     6,    23,    24,     7,    25,    26,
          27,    10,    30,    31,    32,    18,    14,    28,    29,    15
     3,     5,     6,     7,     8,    33,    34,    35,    36,    17,    18,
          19,    20,    41,    42,    43,    44,    37,    38,    39,    40
     4,     6,    23,    24,     7,    34,    45,    46,    35,    30,    31,
          32,    18,    49,    50,    51,    42,    38,    47,    48,    39
     5,     4,     3,    52,    53,     8,     7,    54,    55,    11,    56,
          57,    58,    19,    61,    62,    63,    16,    15,    59,    60
     6,     3,    22,    64,    52,     7,    24,    65,    54,    27,    66,
          67,    56,    32,    69,    70,    61,    15,    29,    68,    59
     7,     8,     7,    54,    55,    36,    35,    71,    72,    19,    61,
          62,    63,    43,    75,    76,    77,    40,    39,    73,    74
     8,     7,    24,    65,    54,    35,    46,    78,    71,    32,    69,
          70,    61,    51,    80,    81,    75,    39,    48,    79,    73
*BOUNDARY
38, 1 
30, 1 
6, 1 
17, 1 
14, 1 
47, 1 
23, 1 
28, 1 
25, 1 
2, 1 
9, 1 
13, 1 
5, 1 
37, 1 
41, 1 
34, 1 
49, 1 
45, 1 
21, 1 
1, 1 
** ... 43 like lines cut
*MATERIAL,NAME=EL
*ELASTIC
210000.,.3
*DENSITY
7.8E-9
*SOLID SECTION,ELSET=Eall,MATERIAL=EL
*NSET,NSET=Nfixc 
53, 
55, 
60, 
72, 
74, 
*TRANSFORM,TYPE=C,NSET=Nfixc
0.,0.,0.,1.,0.,0.
*EQUATION
2
72,1,1.,33,3,-1.
2
72,2,1.,33,3,-1.
2
72,3,1.,33,3,-1.
*STEP
*STATIC
*CLOAD
Nfixc,2,100.
*NODE PRINT,NSET=Nfixc,GLOBAL=YES
RF
*END STEP
