**
**   Structure: one elements.
**   Test objective: sensitivity: internal energy w.r.t. coordinates.
**                   comparison with corresponding 2d-example (sens2d)
**
*NODE, NSET=NALL
         1,  100.0          ,  0.0            ,  100.0          
         2,  0.0            ,  0.0            ,  100.0          
         3,  0.0            ,  100.0          ,  100.0          
         4,  100.0          ,  100.0          ,  100.0          
         5,  100.0          ,  0.0            ,  0.0            
         6,  100.0          ,  100.0          ,  0.0            
         7,  0.0            ,  100.0          ,  0.0            
         8,  0.0            ,  0.0            ,  0.0            
*ELEMENT,TYPE=C3D8,ELSET=EALL
         1,         1,         2,         3,         4,         5,         8,         7,
         6
*NSET, NSET=DESIGNNODES
      1,4,5,6
*DESIGNVARIABLES,TYPE=COORDINATE
DESIGNNODES
*MATERIAL,NAME=EL
*ELASTIC
210000.,.0
*DENSITY
7.8E-9
*SOLID SECTION, ELSET=EALL, MATERIAL=EL
*INITIAL CONDITIONS, TYPE=TEMPERATURE
NALL, 293.15
*BOUNDARY
2,1,3
3,1,3
7,1,3
8,1,3
1,1,1
4,1,1
5,1,1
6,1,1
1,3,3
4,3,3
5,3,3
6,3,3
*STEP
*STATIC
*DLOAD
EALL,GRAV,1.e10,0.,-1.,0.
***CLOAD
**1,1,1.
**2,1,1.
**3,1,1.
**4,1,1.
*NODE FILE
U
*EL FILE
S
*END STEP
*STEP
*SENSITIVITY
*OBJECTIVE
STRAIN ENERGY,EALL
*NODE FILE
SEN
*END STEP
