**
**   Structure: cantilever beam
**   Test objective: B32R elements, pipe section
**                   Torsion
**
*NODE,NSET=Nall
1, 0, 0, 0
2, 0, 0, .5
3, 0, 0, 1
4,0,0,1.5
5,0,0,2.
6,0,0,2.5
7,0,0,3.
8,0,0,3.5
9,0,0,4.
10,0,0,4.5
11,0,0,5.
12,0,0,5.5
13,0,0,6.
14,0,0,6.5
15,0,0,7.
16,0,0,7.5
17,0,0,8.
18,0,0,8.5
19,0,0,9.
20,0,0,9.5
21,0,0,10.
*ELEMENT,TYPE=B32R,ELSET=EAll
1,1,2,3
2,3,4,5
3,5,6,7
4,7,8,9
5,9,10,11
6,11,12,13
7,13,14,15
8,15,16,17
9,17,18,19
10,19,20,21
*BOUNDARY
21,1,6
*MATERIAL,NAME=ALUM
*ELASTIC
1E7,.3
*BEAM SECTION,ELSET=EAll,MATERIAL=ALUM,SECTION=PIPE
.11,.01
1.d0,0.d0,0.d0
*STEP
*STATIC
*CLOAD
1,6,1.
*EL PRINT,ELSET=Eall
S
*END STEP
