*material, name=alu
*elastic
70000,0.3
*plastic
160,0
208.0,0.04
480.0,0.3
