**
**   Structure: two cantilever beams.
**   Test objective: implicit dynamics with contact
**
*NODE, NSET=Nall
       1,  1.00000e+00,  1.00000e+00, -5.96046e-08 
       2,  1.00000e+00,  5.00000e-01, -5.96046e-08 
       3,  1.00000e+00,  5.00000e-01,  1.00000e-00 
       4,  1.00000e+00,  1.00000e+00,  1.00000e-00 
       5,  5.00000e-01,  1.00000e+00, -5.96046e-08 
       6,  5.00000e-01,  5.00000e-01, -5.96046e-08 
       7,  5.00000e-01,  5.00000e-01,  1.00000e-00 
       8,  5.00000e-01,  1.00000e+00,  1.00000e-00 
       9,  1.00000e+00,  7.50000e-01, -5.96046e-08 
      10,  1.00000e+00,  5.00000e-01,  5.00000e-01 
      11,  1.00000e+00,  7.50000e-01,  1.00000e-00 
      12,  1.00000e+00,  1.00000e+00,  5.00000e-01 
      13,  7.50000e-01,  1.00000e+00, -5.96046e-08 
      14,  7.50000e-01,  5.00000e-01, -5.96046e-08 
      15,  7.50000e-01,  5.00000e-01,  1.00000e-00 
      16,  7.50000e-01,  1.00000e+00,  1.00000e-00 
      17,  5.00000e-01,  7.50000e-01, -5.96046e-08 
      18,  5.00000e-01,  5.00000e-01,  5.00000e-01 
      19,  5.00000e-01,  7.50000e-01,  1.00000e-00 
      20,  5.00000e-01,  1.00000e+00,  5.00000e-01 
** ... 502 like lines cut
*ELEMENT, TYPE=C3D20, ELSET=Eall
     1,     1,     2,     3,     4,     5,     6,     7,     8,     9,    10,
          11,    12,    17,    18,    19,    20,    13,    14,    15,    16
     2,     2,    21,    22,     3,     6,    23,    24,     7,    25,    26,
          27,    10,    30,    31,    32,    18,    14,    28,    29,    15
     3,     5,     6,     7,     8,    33,    34,    35,    36,    17,    18,
          19,    20,    41,    42,    43,    44,    37,    38,    39,    40
     4,     6,    23,    24,     7,    34,    45,    46,    35,    30,    31,
          32,    18,    49,    50,    51,    42,    38,    47,    48,    39
     5,     4,     3,    52,    53,     8,     7,    54,    55,    11,    56,
          57,    58,    19,    61,    62,    63,    16,    15,    59,    60
     6,     3,    22,    64,    52,     7,    24,    65,    54,    27,    66,
          67,    56,    32,    69,    70,    61,    15,    29,    68,    59
     7,     8,     7,    54,    55,    36,    35,    71,    72,    19,    61,
          62,    63,    43,    75,    76,    77,    40,    39,    73,    74
     8,     7,    24,    65,    54,    35,    46,    78,    71,    32,    69,
          70,    61,    51,    80,    81,    75,    39,    48,    79,    73
     9,    53,    52,    82,    83,    55,    54,    84,    85,    57,    86,
          87,    88,    62,    91,    92,    93,    60,    59,    89,    90
    10,    52,    64,    94,    82,    54,    65,    95,    84,    67,    96,
          97,    86,    70,    99,   100,    91,    59,    68,    98,    89
** ... 108 like lines cut
*NSET,NSET=Nfix 
1, 
2, 
5, 
6, 
9, 
13, 
14, 
17, 
21, 
23, 
25, 
28, 
30, 
33, 
34, 
37, 
38, 
41, 
45, 
47, 
** ... 22 like lines cut
*BOUNDARY
Nfix,1,3
*MATERIAL,NAME=EL
*ELASTIC
210000.,.3
*DENSITY
7.8E-9
*SOLID SECTION,ELSET=Eall,MATERIAL=EL
*SURFACE,NAME=Smast
1, S6 
5, S6 
3, S6 
7, S6 
9, S6 
11, S6 
13, S6 
15, S6 
17, S6 
19, S6 
21, S6 
23, S6 
25, S6 
27, S6 
29, S6 
31, S6 
*SURFACE,NAME=Sslav
38, S4 
40, S4 
42, S4 
44, S4 
46, S4 
48, S4 
50, S4 
52, S4 
54, S4 
56, S4 
58, S4 
60, S4 
62, S4 
64, S4 
*CONTACT PAIR,INTERACTION=SI1,TYPE=SURFACE TO SURFACE
Sslav,Smast
*SURFACE INTERACTION,NAME=SI1
*SURFACE BEHAVIOR,PRESSURE-OVERCLOSURE=LINEAR
1.E7,1.
*STEP,NLGEOM,INC=10000
*DYNAMIC
1.E-4,1.E-4
*CLOAD
395,2,-100
*NODE PRINT,NSET=Nall,FREQUENCY=1
U
*NODE FILE
U
*END STEP
