**
**   Structure: ball falling on plate.
**   Test objective: dynamic contact.
**                   for complete calculation change
**                   step time from 0.001 to 1.00
**
*NODE, NSET=Nall
    1, 0.000000000000e+00, 0.000000000000e+00, 0.000000000000e+00
    2, 0.000000000000e+00, 3.535533905933e+00, -3.535533905933e+00
    3, 0.000000000000e+00, 7.335204366893e+00, -3.040639770189e+00
    4, 0.000000000000e+00, 5.000000000000e+00, 0.000000000000e+00
    5, 5.000000000000e+00, 0.000000000000e+00, 0.000000000000e+00
    6, 4.995494561190e+00, 3.532348068574e+00, -3.532348068574e+00
    7, 4.757640183504e+00, 7.132487702105e+00, -2.958365737649e+00
    8, 4.995494561190e+00, 4.995494545600e+00, 2.488137063844e-16
    9, 0.000000000000e+00, 1.104359442410e+01, -2.778601608835e+00
    10, 0.000000000000e+00, 1.000000000000e+01, 0.000000000000e+00
    11, 4.537672276888e+00, 1.069996864380e+01, -2.671058231039e+00
    12, 4.802533984154e+00, 9.953503032890e+00, 4.888862027966e-16
    13, 0.000000000000e+00, 1.504935858775e+01, -3.179995038276e+00
    14, 0.000000000000e+00, 1.500000000000e+01, 0.000000000000e+00
    15, 4.239560870615e+00, 1.459801868417e+01, -3.059815333333e+00
    16, 4.432052548059e+00, 1.483797997245e+01, 7.118121979574e-16
    17, 0.000000000000e+00, 1.961570560806e+01, -3.901806440323e+00
    18, 0.000000000000e+00, 2.000000000000e+01, 0.000000000000e+00
    19, 3.901806558535e+00, 1.918045682044e+01, -3.807052469993e+00
    20, 3.901806558535e+00, 1.961570565237e+01, 9.098453311443e-16
** ... 997 like lines cut
*ELEMENT, TYPE=C3D8, ELSET=elall
    1, 1, 2, 3, 4, 5, 6, 7, 8
    2, 4, 3, 9, 10, 8, 7, 11, 12
    3, 10, 9, 13, 14, 12, 11, 15, 16
    4, 14, 13, 17, 18, 16, 15, 19, 20
    5, 2, 21, 22, 3, 6, 23, 24, 7
    6, 3, 22, 25, 9, 7, 24, 26, 11
    7, 9, 25, 27, 13, 11, 26, 28, 15
    8, 13, 27, 29, 17, 15, 28, 30, 19
    9, 25, 22, 31, 27, 26, 24, 32, 28
    10, 27, 31, 33, 29, 28, 32, 34, 30
    11, 22, 21, 35, 31, 24, 23, 36, 32
    12, 31, 35, 37, 33, 32, 36, 38, 34
    13, 5, 6, 7, 8, 39, 40, 41, 42
    14, 8, 7, 11, 12, 42, 41, 43, 44
    15, 12, 11, 15, 16, 44, 43, 45, 46
    16, 16, 15, 19, 20, 46, 45, 47, 48
    17, 6, 23, 24, 7, 40, 49, 50, 41
    18, 7, 24, 26, 11, 41, 50, 51, 43
    19, 11, 26, 28, 15, 43, 51, 52, 45
    20, 15, 28, 30, 19, 45, 52, 53, 47
** ... 748 like lines cut
*node, nset=nfloor
    6001,   0.0, -50.0, -90.0
    6002, 100.0, -50.0, -90.0
    6003, 100.0,  50.0, -90.0
    6004,   0.0,  50.0, -90.0
    6005,  50.0, -50.0, -90.0
    6006, 100.0,   0.0, -90.0
    6007,  50.0,  50.0, -90.0
    6008,   0.0,   0.0, -90.0
*element, type=s8, elset=efloor
    800, 6001, 6002, 6003, 6004, 6005, 6006, 6007, 6008
*NSET,NSET=nsurface
    17, 18, 19, 20, 29, 30, 33, 34, 37, 
    38, 47, 48, 53, 55, 57, 66, 67, 72,
    74, 76, 77, 78, 79, 80, 81, 82, 83, 
    84, 85, 86, 87, 88, 89, 90, 91, 92,
    93, 94, 95, 104, 105, 114, 115, 118, 
    119, 122, 123, 128, 133, 135, 137,
    142, 147, 149, 151, 152, 153, 154, 155, 156, 157, 158, 159, 160, 161,
    162, 163, 164, 165, 174, 175, 184, 185, 188, 189, 192, 193, 198, 203,
    205, 207, 212, 217, 219, 221, 222, 223, 224, 225, 226, 227, 228, 229,
    230, 231, 232, 233, 234, 235, 244, 245, 254, 255, 258, 259, 262, 263,
    268, 273, 275, 277, 282, 287, 289, 291, 292, 293, 294, 295, 296, 297,
    298, 299, 300, 301, 302, 303, 304, 305, 314, 315, 324, 325, 328, 329,
    332, 333, 338, 343, 345, 347, 352, 357, 359, 361, 362, 363, 364, 365,
    366, 367, 368, 369, 370, 371, 372, 373, 374, 375, 384, 385, 394, 395,
    398, 399, 402, 403, 408, 413, 415, 417, 422, 427, 429, 431, 432, 433,
    434, 435, 436, 437, 438, 439, 440, 441, 442, 443, 444, 445, 454, 455,
    464, 465, 468, 469, 472, 473, 478, 483, 485, 487, 492, 497, 499, 501,
    502, 503, 504, 505, 506, 507, 508, 509, 510, 511, 512, 513, 514, 515,
    522, 523, 530, 531, 534, 535, 539, 543, 545, 549, 553, 555, 556, 557,
    558, 559, 560, 561, 562, 563, 564, 565, 566, 567, 576, 581, 583, 585,
** ... 15 like lines cut
*time points, name=times, generate
    0.0, 1.0, 0.0010
*boundary
    nfloor, 1, 6, 
*material, name=gummi
*elastic
    1000.0, 0.3
*density
    2.5e-09, 
*solid section, elset=elall, material=gummi
*shell section, elset=efloor, material=gummi
    0.01
*initial conditions, type=velocity
    nall, 1, 100.0
*surface, name=floor, type=element
    efloor, SPOS
*surface, name=ball, type=node
    nsurface
*contact pair, interaction=contact,TYPE=NODE TO SURFACE
    ball, floor
*surface interaction, name=contact
*surface behavior, pressure-overclosure=exponential
    0.001, 1.0
*step, nlgeom, inc=1000000
*dynamic
    0.001, 0.001, 0.000000001 , 0.002
*dload
    elall, grav, 9810.0, 0.0, 0.0, -1.0
*node print, nset=nall, time points=times
    u
*end step
