**
**   Structure: cantilever beam under pressure.
**   Test objective: C3D10 elements.
**
*NODE,NSET=NALL
       1,            1.,            0.
       2,            0.,            0.
       3,            1.,            1.
       4,           0.5,            0.
       5,           0.5,           0.5
       6,            1.,           0.5
       7,            0.,            1.
       8,            0.,           0.5
       9,           0.5,            1.
      10,            1.,            0.,            8.
      11,            1.,            1.,            8.
      12,            0.,            0.,            8.
      13,            1.,           0.5,            8.
      14,           0.5,           0.5,            8.
      15,           0.5,            0.,            8.
      16,            0.,            1.,            8.
      17,           0.5,            1.,            8.
      18,            0.,           0.5,            8.
      19,            1.,            0.,            2.
      20,            1.,            0.,            1.
** ... 70 like lines cut
*ELEMENT, TYPE=C3D10, ELSET=EALL
      37,       2,      22,      19,      40,      24,      23,      21,
      41,      43,     150
      38,       2,       3,      54,       1,       5,      56,     151,
       4,       6,      68
      39,      22,      44,      28,     149,      45,      47,      30,
     152,     153,     154
      40,      28,      34,     149,      48,      36,     156,     154,
      49,      51,     155
      41,      40,       7,      54,       2,      42,      55,      57,
      41,       8,     151
      42,      54,       2,      19,      40,     151,      21,      69,
      57,      41,     150
      43,      40,      44,     149,      58,      46,     153,     158,
      59,      61,     157
      44,      44,      48,     149,      62,      50,     155,     153,
      63,      65,     159
      45,      34,      16,      11,      48,      52,      17,     160,
      51,      53,      66
      46,      11,      62,      31,      34,      67,      73,      74,
     160,     161,      35
** ... 42 like lines cut
*NSET,NSET=FIX
1,4,2,6,5,8,3,9,7
*NSET,NSET=LOAD
10,15,12,13,14,18,11,17,16
*BOUNDARY
1,1,2
3,1,1
FIX,3,3
*MATERIAL,NAME=EL
*ELASTIC
210000.,.3
*SOLID SECTION,ELSET=EALL,MATERIAL=EL
*STEP
*STATIC
*CLOAD
LOAD,2,1.
*NODE PRINT,NSET=NALL
U,RF
*EL PRINT,ELSET=EALL
S
*END STEP
