**
**   Structure: 2d Couette incompressible concentric fluid flow
**   Test objective: CFD Finite Volume Method
**                   inner wall: tangential velocity 2, temperature 1.
**                   outer wall: tangential velocity 1, temperature 1.
**                   viscous stress and heat flux output in a 
**                   local cylindrical system
**   Analytical solution: v proportional to 1/r
**                        T (r=0.75) = 1.467
**                        p difference inner/outer wall = 1.5
**
*NODE, NSET=Nall
       1,-1.000000000000e+00,0.000000000000e+00,0.000000000000e+00
       2,-9.807852804032e-01,1.950903220161e-01,0.000000000000e+00
       3,-9.807852804032e-01,1.950903220161e-01,1.000000000000e-01
       4,-1.000000000000e+00,0.000000000000e+00,1.000000000000e-01
       5,-8.750000000000e-01,0.000000000000e+00,0.000000000000e+00
       6,-8.581871203528e-01,1.707040317641e-01,-2.220446049250e-16
       7,-8.581871203528e-01,1.707040317641e-01,1.000000000000e-01
       8,-8.750000000000e-01,0.000000000000e+00,1.000000000000e-01
       9,-7.500000000000e-01,0.000000000000e+00,0.000000000000e+00
      10,-7.355889603024e-01,1.463177415121e-01,5.551115123126e-17
      11,-7.355889603024e-01,1.463177415121e-01,1.000000000000e-01
      12,-7.500000000000e-01,0.000000000000e+00,1.000000000000e-01
      13,-6.250000000000e-01,0.000000000000e+00,0.000000000000e+00
      14,-6.129908002520e-01,1.219314512601e-01,0.000000000000e+00
      15,-6.129908002520e-01,1.219314512601e-01,1.000000000000e-01
      16,-6.250000000000e-01,0.000000000000e+00,1.000000000000e-01
      17,-5.000000000000e-01,0.000000000000e+00,0.000000000000e+00
      18,-4.903926402016e-01,9.754516100806e-02,0.000000000000e+00
      19,-4.903926402016e-01,9.754516100806e-02,1.000000000000e-01
      20,-5.000000000000e-01,0.000000000000e+00,1.000000000000e-01
** ... 300 like lines cut
*ELEMENT, TYPE=F3D8, ELSET=Eall
     1,     1,     2,     3,     4,     5,     6,     7,     8
     2,     5,     6,     7,     8,     9,    10,    11,    12
     3,     9,    10,    11,    12,    13,    14,    15,    16
     4,    13,    14,    15,    16,    17,    18,    19,    20
     5,     2,    21,    22,     3,     6,    23,    24,     7
     6,     6,    23,    24,     7,    10,    25,    26,    11
     7,    10,    25,    26,    11,    14,    27,    28,    15
     8,    14,    27,    28,    15,    18,    29,    30,    19
     9,    21,    31,    32,    22,    23,    33,    34,    24
    10,    23,    33,    34,    24,    25,    35,    36,    26
    11,    25,    35,    36,    26,    27,    37,    38,    28
    12,    27,    37,    38,    28,    29,    39,    40,    30
    13,    31,    41,    42,    32,    33,    43,    44,    34
    14,    33,    43,    44,    34,    35,    45,    46,    36
    15,    35,    45,    46,    36,    37,    47,    48,    38
    16,    37,    47,    48,    38,    39,    49,    50,    40
    17,    41,    51,    52,    42,    43,    53,    54,    44
    18,    43,    53,    54,    44,    45,    55,    56,    46
    19,    45,    55,    56,    46,    47,    57,    58,    48
    20,    47,    57,    58,    48,    49,    59,    60,    50
** ... 108 like lines cut
*SURFACE, NAME=SOLIDSURFACE
1, S1
61, S1
5, S1
4, S2
64, S2
8, S2
9, S1
12, S2
13, S1
16, S2
17, S1
20, S2
21, S1
24, S2
25, S1
28, S2
29, S1
32, S2
97, S1
100, S2
** ... 44 like lines cut
*TRANSFORMF,TYPE=C,SURFACE=SOLIDSURFACE
0.,0.,0.,0.,0.,1.
*MATERIAL,NAME=WATER
*DENSITY
1.
*FLUID CONSTANTS
1.,1.
*CONDUCTIVITY
1.
*ORIENTATION,NAME=OR1,SYSTEM=CYLINDRICAL
0.,0.,0.,0.,0.,1.
*SOLID SECTION,ELSET=Eall,MATERIAL=WATER,ORIENTATION=OR1
*INITIAL CONDITIONS,TYPE=PRESSURE
Nall,1.
*INITIAL CONDITIONS,TYPE=FLUID VELOCITY
Nall,1,0.
Nall,2,0.
Nall,3,0.
*INITIAL CONDITIONS,TYPE=TEMPERATURE
Nall,1.
*STEP,INCF=100
*CFD,STEADY STATE
1.,1.,,,0.01
*BOUNDARYF
4, S2, 1,, 0.000000
64, S2, 1,, 0.000000
8, S2, 1,, 0.000000
12, S2, 1,, 0.000000
16, S2, 1,, 0.000000
20, S2, 1,, 0.000000
24, S2, 1,, 0.000000
28, S2, 1,, 0.000000
32, S2, 1,, 0.000000
100, S2, 1,, 0.000000
36, S2, 1,, 0.000000
96, S2, 1,, 0.000000
40, S2, 1,, 0.000000
44, S2, 1,, 0.000000
48, S2, 1,, 0.000000
52, S2, 1,, 0.000000
56, S2, 1,, 0.000000
60, S2, 1,, 0.000000
68, S2, 1,, 0.000000
128, S2, 1,, 0.000000
** ... 492 like lines cut
*NODE PRINT,FREQUENCYF=100,NSET=Nall
VF,PSF,TSF
*EL PRINT,FREQUENCYF=100,ELSET=Eall
SVF,HFLF
*END STEP
