**
**   Structure: two cubes loaded by shear.
**   Test objective: face-to-face penalty
**                   pressure-overclosure=tied
**                   slave face belongs to tet mesh;
**                   to compare with examples cubef2f2 and cubef2f3
**
*NODE
         1,  0.0            ,  0.0            ,  0.0            
         2,  0.125          ,  0.0            ,  0.0            
         3,  0.25           ,  0.0            ,  0.0            
         4,  0.375          ,  0.0            ,  0.0            
         5,  0.5            ,  0.0            ,  0.0            
         6,  0.625          ,  0.0            ,  0.0            
         7,  0.75           ,  0.0            ,  0.0            
         8,  0.875          ,  0.0            ,  0.0            
         9,  1.0            ,  0.0            ,  0.0            
        10,  1.0            ,  0.0            ,  0.125          
        11,  1.0            ,  0.0            ,  0.25           
        12,  1.0            ,  0.0            ,  0.375          
        13,  1.0            ,  0.0            ,  0.5            
        14,  1.0            ,  0.0            ,  0.625          
        15,  1.0            ,  0.0            ,  0.75           
        16,  1.0            ,  0.0            ,  0.875          
        17,  1.0            ,  0.0            ,  1.0            
        18,  0.875          ,  0.0            ,  1.0            
        19,  0.75           ,  0.0            ,  1.0            
        20,  0.625          ,  0.0            ,  1.0            
** ... 2941 like lines cut
*ELEMENT,TYPE=C3D10,ELSET=auto1
       685,       777,       780,       736,       785,      2938,      2761,      2760,
      2939,      2949,      2762
       686,       765,       758,       750,       772,      2862,      2829,      2830,
      2892,      2863,      2831
       687,       757,       764,       753,       752,      2857,      2842,      2841,
      2837,      2838,      2836
       688,       744,       734,       778,       780,      2750,      2752,      2801,
      2802,      2753,      2941
       689,       766,       778,       762,       763,      2895,      2881,      2880,
      2884,      2886,      2879
       690,       763,       761,       781,       778,      2875,      2878,      2887,
      2886,      2877,      2942
       691,       746,       756,       784,       782,      2809,      2855,      2811,
      2810,      2854,      2953
       692,       773,       776,       783,       779,      2923,      2935,      2926,
      2924,      2934,      2946
       693,       766,       778,       744,       762,      2895,      2801,      2800,
      2880,      2881,      2799
       694,       741,       731,       730,       753,      2735,      2731,      2732,
      2784,      2737,      2733
** ... 220 like lines cut
*ELEMENT,TYPE=C3D20,ELSET=auto1
        65,        44,        43,        47,        46,        82,        85,        84,
        83,       917,       918,       928,       922,      1013,      1021,      1017,
      1012,       924,       920,       931,       930
        66,        82,        85,        84,        83,        86,        89,        88,
        87,      1013,      1021,      1017,      1012,      1029,      1037,      1033,
      1028,      1014,      1025,      1022,      1018
        67,        86,        89,        88,        87,        90,        93,        92,
        91,      1029,      1037,      1033,      1028,      1045,      1053,      1049,
      1044,      1030,      1041,      1038,      1034
        68,        90,        93,        92,        91,        94,        97,        96,
        95,      1045,      1053,      1049,      1044,      1061,      1069,      1065,
      1060,      1046,      1057,      1054,      1050
        69,        94,        97,        96,        95,        98,       101,       100,
        99,      1061,      1069,      1065,      1060,      1077,      1085,      1081,
      1076,      1062,      1073,      1070,      1066
        70,        98,       101,       100,        99,       102,       105,       104,
       103,      1077,      1085,      1081,      1076,      1093,      1101,      1097,
      1092,      1078,      1089,      1086,      1082
        71,       102,       105,       104,       103,       106,       109,       108,
       107,      1093,      1101,      1097,      1092,      1109,      1117,      1113,
** ... 1516 like lines cut
*ELSET,ELSET=Eall 
65, 
66, 
67, 
68, 
69, 
70, 
71, 
72, 
73, 
74, 
75, 
76, 
77, 
78, 
79, 
80, 
81, 
82, 
83, 
84, 
** ... 612 like lines cut
*NSET,NSET=Nbottom 
1, 
2, 
3, 
4, 
5, 
6, 
7, 
8, 
9, 
428, 
429, 
432, 
433, 
436, 
437, 
440, 
441, 
444, 
445, 
448, 
** ... 205 like lines cut
*NSET,NSET=Ntop 
748, 
749, 
750, 
751, 
758, 
759, 
760, 
767, 
768, 
769, 
770, 
771, 
772, 
773, 
774, 
775, 
2817, 
2818, 
2819, 
2821, 
** ... 29 like lines cut
*SURFACE, NAME=Master
361, S6
417, S6
233, S6
377, S6
569, S6
273, S6
505, S6
489, S6
234, S6
418, S6
378, S6
235, S6
419, S6
379, S6
236, S6
420, S6
380, S6
237, S6
421, S6
381, S6
** ... 44 like lines cut
*SURFACE, NAME=Slave
694, S1
753, S3
716, S4
754, S4
744, S2
738, S3
711, S3
695, S4
696, S3
718, S3
703, S1
710, S3
709, S1
735, S2
750, S2
719, S4
769, S4
780, S3
*NSET,NSET=Nbottom 
1, 
2, 
3, 
4, 
5, 
6, 
7, 
8, 
9, 
428, 
429, 
432, 
433, 
436, 
437, 
440, 
441, 
444, 
445, 
448, 
** ... 205 like lines cut
*NSET,NSET=Ntop 
748, 
749, 
750, 
751, 
758, 
759, 
760, 
767, 
768, 
769, 
770, 
771, 
772, 
773, 
774, 
775, 
2817, 
2818, 
2819, 
2821, 
** ... 29 like lines cut
*BOUNDARY
1,1,2
9,2,2
Nbottom,3,3
*CONTACT PAIR,INTERACTION=SI1,TYPE=SURFACE TO SURFACE
Slave,Master
*SURFACE INTERACTION,NAME=SI1
*SURFACE BEHAVIOR,PRESSURE-OVERCLOSURE=TIED
1.e7
*FRICTION
1.e30,1.e7
*MATERIAL,NAME=EL
*ELASTIC
210000.,.3
*DENSITY
7.8E-9
*SOLID SECTION,ELSET=Eall,MATERIAL=EL
*STEP
*STATIC
0.999,1.
*BOUNDARY
Ntop,1,1,.01
Nbottom,1,3
*CONTACT FILE,FREQUENCY=2
CDISP,CSTRESS
*END STEP

