**
**   Structure: hollow cylinder.
**   Test objective: *COUPLING, *DISTRIBUTING for rotations.
**                   noncentral reference node
**
*NODE, NSET=Nall
       1,5.551115123126e-17,1.100000000000e+00,0.000000000000e+00
       2,4.209517756016e-01,1.016267485762e+00,0.000000000000e+00
       3,4.209517756016e-01,1.016267485762e+00,8.000000000000e-01
       4,5.551115123126e-17,1.100000000000e+00,8.000000000000e-01
       5,5.551115123126e-17,1.000000000000e+00,0.000000000000e+00
       6,3.826834323651e-01,9.238795325113e-01,0.000000000000e+00
       7,3.826834323651e-01,9.238795325113e-01,8.000000000000e-01
       8,5.551115123126e-17,1.000000000000e+00,8.000000000000e-01
       9,2.145993542177e-01,1.078863808444e+00,0.000000000000e+00
      10,4.209517756016e-01,1.016267485762e+00,4.000000000000e-01
      11,2.145993542177e-01,1.078863808444e+00,8.000000000000e-01
      12,5.551115123126e-17,1.100000000000e+00,4.000000000000e-01
      13,5.551115123126e-17,1.050000000000e+00,0.000000000000e+00
      14,4.018176039833e-01,9.700735091369e-01,8.881784197001e-16
      15,4.018176039833e-01,9.700735091369e-01,8.000000000000e-01
      16,5.551115123126e-17,1.050000000000e+00,8.000000000000e-01
      17,1.950903220161e-01,9.807852804032e-01,0.000000000000e+00
      18,3.826834323651e-01,9.238795325113e-01,4.000000000000e-01
      19,1.950903220161e-01,9.807852804032e-01,8.000000000000e-01
      20,5.551115123126e-17,1.000000000000e+00,4.000000000000e-01
** ... 1181 like lines cut
*ELEMENT, TYPE=C3D20R, ELSET=Eall
     1,     1,     2,     3,     4,     5,     6,     7,     8,     9,    10,
          11,    12,    17,    18,    19,    20,    13,    14,    15,    16
     2,     4,     3,    21,    22,     8,     7,    23,    24,    11,    25,
          26,    27,    19,    30,    31,    32,    16,    15,    28,    29
     3,    22,    21,    33,    34,    24,    23,    35,    36,    26,    37,
          38,    39,    31,    42,    43,    44,    29,    28,    40,    41
     4,    34,    33,    45,    46,    36,    35,    47,    48,    38,    49,
          50,    51,    43,    54,    55,    56,    41,    40,    52,    53
     5,    46,    45,    57,    58,    48,    47,    59,    60,    50,    61,
          62,    63,    55,    66,    67,    68,    53,    52,    64,    65
     6,    58,    57,    69,    70,    60,    59,    71,    72,    62,    73,
          74,    75,    67,    78,    79,    80,    65,    64,    76,    77
     7,    70,    69,    81,    82,    72,    71,    83,    84,    74,    85,
          86,    87,    79,    90,    91,    92,    77,    76,    88,    89
     8,    82,    81,    93,    94,    84,    83,    95,    96,    86,    97,
          98,    99,    91,   102,   103,   104,    89,    88,   100,   101
     9,    94,    93,   105,   106,    96,    95,   107,   108,    98,   109,
         110,   111,   103,   114,   115,   116,   101,   100,   112,   113
    10,   106,   105,   117,   118,   108,   107,   119,   120,   110,   121,
         122,   123,   115,   126,   127,   128,   113,   112,   124,   125
** ... 300 like lines cut
** Names based on fix
*NSET,NSET=Nfix 
1, 
2, 
5, 
6, 
9, 
13, 
14, 
17, 
129, 
131, 
133, 
136, 
138, 
204, 
206, 
208, 
211, 
213, 
279, 
281, 
** ... 60 like lines cut
*BOUNDARY
Nfix, 1
*BOUNDARY
Nfix, 2
*BOUNDARY
Nfix, 3
*MATERIAL,NAME=EL
*ELASTIC
  210000.0,        .3
*SOLID SECTION,ELSET=Eall,MATERIAL=EL
*SURFACE, NAME=S1
10, S5
20, S5
80, S5
30, S5
40, S5
130, S5
50, S5
60, S5
120, S5
70, S5
90, S5
100, S5
160, S5
110, S5
140, S5
150, S5
*ORIENTATION,NAME=OR1,SYSTEM=CYLINDRICAL
0.,0.,0.,0.,0.,1.
*COUPLING,REF NODE=1201,SURFACE=S1,ORIENTATION=OR1,CONSTRAINT NAME=CN1
*KINEMATIC
2
*STEP
*STATIC
*BOUNDARY
1201,6,6,.01
*SECTION PRINT,SURFACE=S1,NAME=SP1
SOF,SOM
*NODE FILE
U
*END STEP
