**
**   Structure: circular line within cube around 
**              beam-like conductor; Heaviside-step-like
**              current
**   Test objective: Calculation of E and B
**                   Heating of the conductor
**
*NODE, NSET=Nair
    1553,1.000000000000e-01,-1.000000000000e-01,0.000000000000e+00
    1554,1.000000000000e-01,-3.250000000000e-01,0.000000000000e+00
    1555,1.000000000000e-01,-3.250000000000e-01,2.000000000000e-01
    1556,1.000000000000e-01,-1.000000000000e-01,2.000000000000e-01
    1557,0.000000000000e+00,-1.000000000000e-01,0.000000000000e+00
    1558,0.000000000000e+00,-3.250000000000e-01,0.000000000000e+00
    1559,3.469446951954e-18,-3.250000000000e-01,2.000000000000e-01
    1560,0.000000000000e+00,-1.000000000000e-01,2.000000000000e-01
    1561,1.000000000000e-01,-3.250000000000e-01,4.000000000000e-01
    1562,1.000000000000e-01,-1.000000000000e-01,4.000000000000e-01
    1563,0.000000000000e+00,-3.250000000000e-01,4.000000000000e-01
    1564,0.000000000000e+00,-1.000000000000e-01,4.000000000000e-01
    1565,1.000000000000e-01,-3.250000000000e-01,6.000000000000e-01
    1566,1.000000000000e-01,-1.000000000000e-01,6.000000000000e-01
    1567,0.000000000000e+00,-3.250000000000e-01,6.000000000000e-01
    1568,0.000000000000e+00,-1.000000000000e-01,6.000000000000e-01
    1569,1.000000000000e-01,-3.250000000000e-01,8.000000000000e-01
    1570,1.000000000000e-01,-1.000000000000e-01,8.000000000000e-01
    1571,0.000000000000e+00,-3.250000000000e-01,8.000000000000e-01
    1572,0.000000000000e+00,-1.000000000000e-01,8.000000000000e-01
** ... 1546 like lines cut
*ELEMENT, TYPE=C3D8, ELSET=Eair
   513,  1553,  1554,  1555,  1556,  1557,  1558,  1559,  1560
   514,  1556,  1555,  1561,  1562,  1560,  1559,  1563,  1564
   515,  1562,  1561,  1565,  1566,  1564,  1563,  1567,  1568
   516,  1566,  1565,  1569,  1570,  1568,  1567,  1571,  1572
   517,  1557,  1558,  1559,  1560,  1573,  1574,  1575,  1576
   518,  1560,  1559,  1563,  1564,  1576,  1575,  1577,  1578
   519,  1564,  1563,  1567,  1568,  1578,  1577,  1579,  1580
   520,  1568,  1567,  1571,  1572,  1580,  1579,  1581,  1582
   521,  1554,  1583,  1584,  1555,  1558,  1585,  1586,  1559
   522,  1555,  1584,  1587,  1561,  1559,  1586,  1588,  1563
   523,  1561,  1587,  1589,  1565,  1563,  1588,  1590,  1567
   524,  1565,  1589,  1591,  1569,  1567,  1590,  1592,  1571
   525,  1558,  1585,  1586,  1559,  1574,  1593,  1594,  1575
   526,  1559,  1586,  1588,  1563,  1575,  1594,  1595,  1577
   527,  1563,  1588,  1590,  1567,  1577,  1595,  1596,  1579
   528,  1567,  1590,  1592,  1571,  1579,  1596,  1597,  1581
   529,  1583,  1598,  1599,  1584,  1585,  1600,  1601,  1586
   530,  1584,  1599,  1602,  1587,  1586,  1601,  1603,  1588
   531,  1587,  1602,  1604,  1589,  1588,  1603,  1605,  1590
   532,  1589,  1604,  1606,  1591,  1590,  1605,  1607,  1592
** ... 1148 like lines cut
*NODE, NSET=Npart
    3119,1.000000000000e-01,1.000000000000e-01,-8.000000000000e-01
    3120,1.000000000000e-01,0.000000000000e+00,-8.000000000000e-01
    3121,1.000000000000e-01,0.000000000000e+00,-6.000000000000e-01
    3122,1.000000000000e-01,1.000000000000e-01,-6.000000000000e-01
    3123,0.000000000000e+00,1.000000000000e-01,-8.000000000000e-01
    3124,0.000000000000e+00,0.000000000000e+00,-8.000000000000e-01
    3125,0.000000000000e+00,0.000000000000e+00,-6.000000000000e-01
    3126,0.000000000000e+00,1.000000000000e-01,-6.000000000000e-01
    3127,1.000000000000e-01,0.000000000000e+00,-4.000000000000e-01
    3128,1.000000000000e-01,1.000000000000e-01,-4.000000000000e-01
    3129,1.734723475977e-18,0.000000000000e+00,-4.000000000000e-01
    3130,0.000000000000e+00,1.000000000000e-01,-4.000000000000e-01
    3131,1.000000000000e-01,0.000000000000e+00,-2.000000000000e-01
    3132,1.000000000000e-01,1.000000000000e-01,-2.000000000000e-01
    3133,-2.775557561563e-17,0.000000000000e+00,-2.000000000000e-01
    3134,0.000000000000e+00,1.000000000000e-01,-2.000000000000e-01
    3135,1.000000000000e-01,-3.469446951954e-18,0.000000000000e+00
    3136,1.000000000000e-01,1.000000000000e-01,0.000000000000e+00
    3137,0.000000000000e+00,-1.734723475977e-18,-1.110223024625e-16
    3138,0.000000000000e+00,1.000000000000e-01,-5.551115123126e-17
** ... 61 like lines cut
*ELEMENT, TYPE=C3D8, ELSET=Epart
  1681,  3119,  3120,  3121,  3122,  3123,  3124,  3125,  3126
  1682,  3122,  3121,  3127,  3128,  3126,  3125,  3129,  3130
  1683,  3128,  3127,  3131,  3132,  3130,  3129,  3133,  3134
  1684,  3132,  3131,  3135,  3136,  3134,  3133,  3137,  3138
  1685,  3136,  3135,  3139,  3140,  3138,  3137,  3141,  3142
  1686,  3140,  3139,  3143,  3144,  3142,  3141,  3145,  3146
  1687,  3144,  3143,  3147,  3148,  3146,  3145,  3149,  3150
  1688,  3148,  3147,  3151,  3152,  3150,  3149,  3153,  3154
  1689,  3123,  3124,  3125,  3126,  3155,  3156,  3157,  3158
  1690,  3126,  3125,  3129,  3130,  3158,  3157,  3159,  3160
  1691,  3130,  3129,  3133,  3134,  3160,  3159,  3161,  3162
  1692,  3134,  3133,  3137,  3138,  3162,  3161,  3163,  3164
  1693,  3138,  3137,  3141,  3142,  3164,  3163,  3165,  3166
  1694,  3142,  3141,  3145,  3146,  3166,  3165,  3167,  3168
  1695,  3146,  3145,  3149,  3150,  3168,  3167,  3169,  3170
  1696,  3150,  3149,  3153,  3154,  3170,  3169,  3171,  3172
  1697,  3120,  3173,  3174,  3121,  3124,  3175,  3176,  3125
  1698,  3121,  3174,  3177,  3127,  3125,  3176,  3178,  3129
  1699,  3127,  3177,  3179,  3131,  3129,  3178,  3180,  3133
  1700,  3131,  3179,  3181,  3135,  3133,  3180,  3182,  3137
** ... 12 like lines cut
*NODE, NSET=Ncoil
       1,0.000000000000e+00,2.000000000000e-01,1.000000000000e-03
       2,0.000000000000e+00,2.007071067812e-01,7.071067811865e-04
       3,-1.966538080990e-02,1.997287003051e-01,7.071067811865e-04
       4,-1.960342806591e-02,1.990369453344e-01,1.000000000000e-03
       5,0.000000000000e+00,2.003826834324e-01,9.238795325113e-04
       6,-9.844540789559e-03,2.004591236634e-01,7.071067811865e-04
       7,-1.963622506552e-02,1.994101322339e-01,9.238795325113e-04
       8,-9.813534865484e-03,1.997590912410e-01,1.000000000000e-03
       9,-3.914149791188e-02,1.968286671544e-01,7.071067811865e-04
      10,-3.901806440323e-02,1.961570560806e-01,1.000000000000e-03
      11,-2.943887638904e-02,1.985175807684e-01,7.071067811865e-04
      12,-3.908342241278e-02,1.965183504041e-01,9.238795325113e-04
      13,-2.934609489107e-02,1.978353019930e-01,1.000000000000e-03
      14,-5.824091031099e-02,1.920348115740e-01,7.071067811865e-04
      15,-5.805693545089e-02,1.913880671464e-01,1.000000000000e-03
      16,-4.874988650516e-02,1.946660126121e-01,7.071067811865e-04
      17,-5.815438476377e-02,1.917351075192e-01,9.238795325113e-04
      18,-4.859603598065e-02,1.940062506389e-01,1.000000000000e-03
      19,-7.677980488450e-02,1.853931763544e-01,7.071067811865e-04
      20,-7.653668647302e-02,1.847759065023e-01,1.000000000000e-03
** ... 1532 like lines cut
*ELEMENT, TYPE=S8, ELSET=Ecoil
     1,      1,      2,      3,      4,      5,      6,      7,      8
     2,      4,      3,      9,     10,      7,     11,     12,     13
     3,     10,      9,     14,     15,     12,     16,     17,     18
     4,     15,     14,     19,     20,     17,     21,     22,     23
     5,     20,     19,     24,     25,     22,     26,     27,     28
     6,     25,     24,     29,     30,     27,     31,     32,     33
     7,     30,     29,     34,     35,     32,     36,     37,     38
     8,     35,     34,     39,     40,     37,     41,     42,     43
     9,     40,     39,     44,     45,     42,     46,     47,     48
    10,     45,     44,     49,     50,     47,     51,     52,     53
    11,     50,     49,     54,     55,     52,     56,     57,     58
    12,     55,     54,     59,     60,     57,     61,     62,     63
    13,     60,     59,     64,     65,     62,     66,     67,     68
    14,     65,     64,     69,     70,     67,     71,     72,     73
    15,     70,     69,     74,     75,     72,     76,     77,     78
    16,     75,     74,     79,     80,     77,     81,     82,     83
    17,      2,     84,     85,      3,     86,     87,     88,      6
    18,      3,     85,     89,      9,     88,     90,     91,     11
    19,      9,     89,     92,     14,     91,     93,     94,     16
    20,     14,     92,     95,     19,     94,     96,     97,     21
** ... 492 like lines cut
** Names based on minus
*NSET,NSET=Nminus 
1244, 
1245, 
1247, 
1294, 
1296, 
1372, 
1373, 
1375, 
1392, 
1468, 
1469, 
1471, 
1488, 
1534, 
1536, 
1552, 
** Names based on plus
*NSET,NSET=Nplus 
1, 
2, 
5, 
84, 
86, 
134, 
135, 
138, 
217, 
234, 
235, 
238, 
317, 
334, 
336, 
384, 
** Names based on n1
*NSET,NSET=Nn1 
3191, 
*MATERIAL,NAME=COPPER
*DENSITY
8940.
*CONDUCTIVITY
399.
*SPECIFIC HEAT
382.
*ELECTRICAL CONDUCTIVITY
5.96E7
*MAGNETIC PERMEABILITY
1.255987E-6,2
*MATERIAL,NAME=AIR
*DENSITY
1.293
*CONDUCTIVITY
0.026
*SPECIFIC HEAT
1005.
*MAGNETIC PERMEABILITY
1.256e-6,1
*PHYSICAL CONSTANTS,ABSOLUTE ZERO=-273.15,STEFAN BOLTZMANN=5.669E-8
*SHELL SECTION,ELSET=Ecoil,MATERIAL=COPPER
1.e-5
*SOLID SECTION,ELSET=Eair,MATERIAL=AIR
*SOLID SECTION,ELSET=Epart,MATERIAL=COPPER
*NSET,NSET=N1
1633,1634,1635,1636,1637,1638,1639,1640
*INITIAL CONDITIONS,TYPE=TEMPERATURE
Nair,0.
Npart,0.
Ncoil,0.
*STEP,INC=1000
*ELECTROMAGNETICS,direct
1.e-1,1.
*BOUNDARY
Nn1,8,8
*BOUNDARY
Nplus,11,11,100.
Nminus,11,11,0.
*NODE FILE,FREQUENCY=10
POT,U,NT
*EL FILE,FREQUENCY=10
ECD,EMFE,EMFB
*EL PRINT,ELSET=Epart,TOTALS=ONLY
EBHE
*END STEP
