**
**   Structure: plate.
**   Test objective: CPE8 elements
**
*NODE, NSET=Nall
       1,1.000000000000e+00,0.000000000000e+00,0.000000000000e+00
       2,0.000000000000e+00,0.000000000000e+00,0.000000000000e+00
       3,0.000000000000e+00,1.000000000000e+00,0.000000000000e+00
       4,1.000000000000e+00,1.000000000000e+00,0.000000000000e+00
       5,1.000000000000e+00,5.000000000000e-01,0.000000000000e+00
       6,5.000000000000e-01,1.000000000000e+00,0.000000000000e+00
       7,0.000000000000e+00,5.000000000000e-01,0.000000000000e+00
       8,5.000000000000e-01,0.000000000000e+00,0.000000000000e+00
*ELEMENT, TYPE=CPE8, ELSET=Eall
     1,      1,      4,      3,      2,      5,      6,      7,      8
*BOUNDARY
1,1,2
2,2,2
8,2,2
*MATERIAL,NAME=EL
*ELASTIC
210000,.3
*SOLID SECTION,ELSET=Eall,MATERIAL=EL,OFFSET=0.
0.01
*STEP
*STATIC
*CLOAD
3,2,0.16666666
4,2,0.16666666
6,2,0.66666666
*NODE FILE,OUTPUT=3D
U,RF
*EL FILE
E,S,NOE
*NODE PRINT,NSET=Nall
U
*EL PRINT,ELSET=Eall
E,S
*END STEP
