**
**   Structure: cantilever beam
**   Test objective: section forces for large deformations
**
*NODE, NSET=Nall
       1,  0.00000e+00,  0.00000e+00,  0.00000e+00 
       2,  1.00000e-01,  0.00000e+00,  0.00000e+00 
       3,  5.00000e-02,  0.00000e+00,  0.00000e+00 
       4,  2.00000e-01,  0.00000e+00,  0.00000e+00 
       5,  1.50000e-01,  0.00000e+00,  0.00000e+00 
       6,  3.00000e-01,  0.00000e+00,  0.00000e+00 
       7,  2.50000e-01,  0.00000e+00,  0.00000e+00 
       8,  4.00000e-01,  0.00000e+00,  0.00000e+00 
       9,  3.50000e-01,  0.00000e+00,  0.00000e+00 
      10,  5.00000e-01,  0.00000e+00,  0.00000e+00 
      11,  4.50000e-01,  0.00000e+00,  0.00000e+00 
      12,  6.00000e-01,  0.00000e+00,  0.00000e+00 
      13,  5.50000e-01,  0.00000e+00,  0.00000e+00 
      14,  7.00000e-01,  0.00000e+00,  0.00000e+00 
      15,  6.50000e-01,  0.00000e+00,  0.00000e+00 
      16,  8.00000e-01,  0.00000e+00,  0.00000e+00 
      17,  7.50000e-01,  0.00000e+00,  0.00000e+00 
      18,  9.00000e-01,  0.00000e+00,  0.00000e+00 
      19,  8.50000e-01,  0.00000e+00,  0.00000e+00 
      20,  1.00000e+00,  0.00000e+00,  0.00000e+00 
** ... 21 like lines cut
*ELEMENT, TYPE=B32, ELSET=Eall
     1,      1,      3,      2
     2,      2,      5,      4
     3,      4,      7,      6
     4,      6,      9,      8
     5,      8,     11,     10
     6,     10,     13,     12
     7,     12,     15,     14
     8,     14,     17,     16
     9,     16,     19,     18
    10,     18,     21,     20
    11,     20,     23,     22
    12,     22,     25,     24
    13,     24,     27,     26
    14,     26,     29,     28
    15,     28,     31,     30
    16,     30,     33,     32
    17,     32,     35,     34
    18,     34,     37,     36
    19,     36,     39,     38
    20,     38,     41,     40
*BOUNDARY
1,1,6
*MATERIAL,NAME=EL
*ELASTIC
210000.,.3
*BEAM SECTION,ELSET=Eall,MATERIAL=EL,SECTION=CIRC
0.01
0.d0,1.d0,0.d0
*STEP,NLGEOM
*STATIC
*CLOAD
40,1,10.
*NODE PRINT,NSET=NALL
U
*EL PRINT,ELSET=EALL
S
*END STEP



