**
**   Structure: cantilever beam.
**   Test objective: eigenfrequencies and eigenmodes.
**                   submodel
**
*HEADING
Model: beam     Date: 10-Mar-1998
*NODE, NSET=Nall
      34,1.000000000000e+00,0.000000000000e+00,1.000000000000e+00
      35,1.000000000000e+00,0.000000000000e+00,1.500000000000e+00
      36,1.000000000000e+00,0.000000000000e+00,2.000000000000e+00
      37,1.000000000000e+00,0.000000000000e+00,2.500000000000e+00
      38,1.000000000000e+00,0.000000000000e+00,3.000000000000e+00
      39,1.000000000000e+00,0.000000000000e+00,3.500000000000e+00
      40,1.000000000000e+00,0.000000000000e+00,4.000000000000e+00
      55,0.000000000000e+00,0.000000000000e+00,4.000000000000e+00
      56,0.000000000000e+00,0.000000000000e+00,3.500000000000e+00
      57,0.000000000000e+00,0.000000000000e+00,3.000000000000e+00
      58,0.000000000000e+00,0.000000000000e+00,2.500000000000e+00
      59,0.000000000000e+00,0.000000000000e+00,2.000000000000e+00
      60,0.000000000000e+00,0.000000000000e+00,1.500000000000e+00
      61,0.000000000000e+00,0.000000000000e+00,1.000000000000e+00
      64,1.000000000000e+00,1.500000000000e+00,1.000000000000e+00
      65,1.000000000000e+00,1.500000000000e+00,1.500000000000e+00
      66,1.000000000000e+00,1.500000000000e+00,2.000000000000e+00
      67,1.000000000000e+00,1.500000000000e+00,2.500000000000e+00
      68,1.000000000000e+00,1.500000000000e+00,3.000000000000e+00
      69,1.000000000000e+00,1.500000000000e+00,3.500000000000e+00
** ... 91 like lines cut
*ELEMENT, TYPE=C3D20R, ELSET=Eall
     5,    61,   105,   222,   192,    59,   109,   228,   196,   104,   220,
         221,   193,   108,   226,   227,   197,    60,   107,   225,   194
     6,   105,    34,   134,   222,   109,    36,   138,   228,   106,   133,
         223,   220,   110,   137,   229,   226,   107,    35,   136,   225
     7,   192,   222,   163,    79,   196,   228,   167,    81,   221,   224,
         164,   191,   227,   230,   168,   195,   194,   225,   165,    80
     8,   222,   134,    64,   163,   228,   138,    66,   167,   223,   135,
         162,   224,   229,   139,   166,   230,   225,   136,    65,   165
     9,    59,   109,   228,   196,    57,   113,   234,   200,   108,   226,
         227,   197,   112,   232,   233,   201,    58,   111,   231,   198
    10,   109,    36,   138,   228,   113,    38,   142,   234,   110,   137,
         229,   226,   114,   141,   235,   232,   111,    37,   140,   231
    11,   196,   228,   167,    81,   200,   234,   171,    83,   227,   230,
         168,   195,   233,   236,   172,   199,   198,   231,   169,    82
    12,   228,   138,    66,   167,   234,   142,    68,   171,   229,   139,
         166,   230,   235,   143,   170,   236,   231,   140,    67,   169
    13,    57,   113,   234,   200,    55,   117,   240,   204,   112,   232,
         233,   201,   116,   238,   239,   205,    56,   115,   237,   202
    14,   113,    38,   142,   234,   117,    40,   146,   240,   114,   141,
         235,   232,   118,   145,   241,   238,   115,    39,   144,   237
** ... 4 like lines cut
** Names based on dd
*NSET,NSET=Nsurface 
34, 
35, 
36, 
37, 
38, 
39, 
40, 
55, 
56, 
57, 
58, 
59, 
60, 
61, 
64, 
65, 
66, 
67, 
68, 
69, 
** ... 78 like lines cut
*MATERIAL,NAME=EL
*ELASTIC
  210000.0,        .3
*DENSITY
7.8E-9
*SOLID SECTION,MATERIAL=EL,ELSET=Eall
*SUBMODEL,TYPE=NODE,INPUT=beamf3.frd
Nall
*STEP
*STATIC
*BOUNDARY,SUBMODEL,STEP=1
Nsurface,1,3
*NODE FILE
U
*END STEP
*STEP,PERTURBATION
*STATIC
*BOUNDARY,SUBMODEL,DATA SET=9
Nsurface,1,3
*NODE FILE
U
*END STEP

