**
**   Structure: 2d Couette incompressible fluid flow
**   Test objective: CFD Finite Volume Method
**                   mean entrance velocity 0.5
**		     moving wall: velocity 1. and temperature 0.
**                   fixed wall: velocity 0 and adiabatic
**                   pressure at exit 1.
**   Analytical solution: v linear between 0. and 1.
**                        Tmax=0.5
**                        p constant at 1.
**
*NODE, NSET=Nall
       1,0.000000000000e+00,0.000000000000e+00,1.000000000000e-01
       2,0.000000000000e+00,1.000000000000e-01,1.000000000000e-01
       3,6.000000000000e-01,1.000000000000e-01,1.000000000000e-01
       4,6.000000000000e-01,0.000000000000e+00,1.000000000000e-01
       5,0.000000000000e+00,0.000000000000e+00,0.000000000000e+00
       6,0.000000000000e+00,1.000000000000e-01,0.000000000000e+00
       7,6.000000000000e-01,1.000000000000e-01,0.000000000000e+00
       8,6.000000000000e-01,0.000000000000e+00,0.000000000000e+00
       9,1.200000000000e+00,1.000000000000e-01,1.000000000000e-01
      10,1.200000000000e+00,0.000000000000e+00,1.000000000000e-01
      11,1.200000000000e+00,1.000000000000e-01,0.000000000000e+00
      12,1.200000000000e+00,0.000000000000e+00,0.000000000000e+00
      13,1.800000000000e+00,1.000000000000e-01,1.000000000000e-01
      14,1.800000000000e+00,0.000000000000e+00,1.000000000000e-01
      15,1.800000000000e+00,1.000000000000e-01,0.000000000000e+00
      16,1.800000000000e+00,0.000000000000e+00,0.000000000000e+00
      17,2.400000000000e+00,1.000000000000e-01,1.000000000000e-01
      18,2.400000000000e+00,0.000000000000e+00,1.000000000000e-01
      19,2.400000000000e+00,1.000000000000e-01,0.000000000000e+00
      20,2.400000000000e+00,0.000000000000e+00,0.000000000000e+00
** ... 222 like lines cut
*ELEMENT, TYPE=F3D8, ELSET=Eall
     1,     1,     2,     3,     4,     5,     6,     7,     8
     2,     4,     3,     9,    10,     8,     7,    11,    12
     3,    10,     9,    13,    14,    12,    11,    15,    16
     4,    14,    13,    17,    18,    16,    15,    19,    20
     5,    18,    17,    21,    22,    20,    19,    23,    24
     6,    22,    21,    25,    26,    24,    23,    27,    28
     7,    26,    25,    29,    30,    28,    27,    31,    32
     8,    30,    29,    33,    34,    32,    31,    35,    36
     9,    34,    33,    37,    38,    36,    35,    39,    40
    10,    38,    37,    41,    42,    40,    39,    43,    44
    11,     2,    45,    46,     3,     6,    47,    48,     7
    12,     3,    46,    49,     9,     7,    48,    50,    11
    13,     9,    49,    51,    13,    11,    50,    52,    15
    14,    13,    51,    53,    17,    15,    52,    54,    19
    15,    17,    53,    55,    21,    19,    54,    56,    23
    16,    21,    55,    57,    25,    23,    56,    58,    27
    17,    25,    57,    59,    29,    27,    58,    60,    31
    18,    29,    59,    61,    33,    31,    60,    62,    35
    19,    33,    61,    63,    37,    35,    62,    64,    39
    20,    37,    63,    65,    41,    39,    64,    66,    43
** ... 80 like lines cut
*SURFACE, NAME=SOLIDSURFACE
1, S6
2, S6
3, S6
4, S6
5, S6
6, S6
7, S6
8, S6
9, S6
10, S6
91, S4
92, S4
93, S4
94, S4
95, S4
96, S4
97, S4
98, S4
99, S4
100, S4
*MATERIAL,NAME=WATER
*DENSITY
1.
*FLUID CONSTANTS
1.,1.
*CONDUCTIVITY
1.
*SOLID SECTION,ELSET=Eall,MATERIAL=WATER
*INITIAL CONDITIONS,TYPE=FLUID VELOCITY
Nall,1,1.
Nall,2,0.
Nall,3,0.
*INITIAL CONDITIONS,TYPE=PRESSURE
Nall,1.
*INITIAL CONDITIONS,TYPE=TEMPERATURE
Nall,0.
*STEP,INCF=1000
*CFD,STEADY STATE
1.,1.,,,0.01
*BOUNDARYF
91, S4, 2,, 0.000000
92, S4, 2,, 0.000000
93, S4, 2,, 0.000000
94, S4, 2,, 0.000000
95, S4, 2,, 0.000000
96, S4, 2,, 0.000000
97, S4, 2,, 0.000000
98, S4, 2,, 0.000000
99, S4, 2,, 0.000000
100, S4, 2,, 0.000000
91, S4, 3,, 0.000000
92, S4, 3,, 0.000000
93, S4, 3,, 0.000000
94, S4, 3,, 0.000000
95, S4, 3,, 0.000000
96, S4, 3,, 0.000000
97, S4, 3,, 0.000000
98, S4, 3,, 0.000000
99, S4, 3,, 0.000000
100, S4, 3,, 0.000000
** ... 310 like lines cut
*BOUNDARYF
91, S4, 1,, 1.000000
92, S4, 1,, 1.000000
93, S4, 1,, 1.000000
94, S4, 1,, 1.000000
95, S4, 1,, 1.000000
96, S4, 1,, 1.000000
97, S4, 1,, 1.000000
98, S4, 1,, 1.000000
99, S4, 1,, 1.000000
100, S4, 1,, 1.000000
10, S5, 8,, 1.000000
20, S5, 8,, 1.000000
30, S5, 8,, 1.000000
40, S5, 8,, 1.000000
50, S5, 8,, 1.000000
60, S5, 8,, 1.000000
70, S5, 8,, 1.000000
80, S5, 8,, 1.000000
90, S5, 8,, 1.000000
100, S5, 8,, 1.000000
** ... 10 like lines cut
*DFLUX
1, S6, 0.000000e+00
2, S6, 0.000000e+00
3, S6, 0.000000e+00
4, S6, 0.000000e+00
5, S6, 0.000000e+00
6, S6, 0.000000e+00
7, S6, 0.000000e+00
8, S6, 0.000000e+00
9, S6, 0.000000e+00
10, S6, 0.000000e+00
*NODE PRINT,FREQUENCYF=1000,NSET=Nall
VF,PSF,TSF
*EL PRINT,ELSET=Eall
SVF,HFLF
*END STEP
