**
**   Structure: fluid flow between two plates.
**   Test objective: stationary incompressible Couette
**                   with fixed wall temperature.
**                   velocity:linear between 0. and 1.
**                   temperature: maximum of 1.125
**
*NODE, NSET=Nall
       1,1.000000000000e-01,1.000000000000e+00,0.000000000000e+00
       2,1.000000000000e-01,9.500000000000e-01,0.000000000000e+00
       3,1.000000000000e-01,9.500000000000e-01,1.000000000000e-01
       4,1.000000000000e-01,1.000000000000e+00,1.000000000000e-01
       5,0.000000000000e+00,1.000000000000e+00,0.000000000000e+00
       6,0.000000000000e+00,9.500000000000e-01,0.000000000000e+00
       7,0.000000000000e+00,9.500000000000e-01,1.000000000000e-01
       8,0.000000000000e+00,1.000000000000e+00,1.000000000000e-01
       9,1.000000000000e-01,9.000000000000e-01,0.000000000000e+00
      10,1.000000000000e-01,9.000000000000e-01,1.000000000000e-01
      11,0.000000000000e+00,9.000000000000e-01,0.000000000000e+00
      12,0.000000000000e+00,9.000000000000e-01,1.000000000000e-01
      13,1.000000000000e-01,8.500000000000e-01,0.000000000000e+00
      14,1.000000000000e-01,8.500000000000e-01,1.000000000000e-01
      15,0.000000000000e+00,8.500000000000e-01,0.000000000000e+00
      16,0.000000000000e+00,8.500000000000e-01,1.000000000000e-01
      17,1.000000000000e-01,8.000000000000e-01,0.000000000000e+00
      18,1.000000000000e-01,8.000000000000e-01,1.000000000000e-01
      19,0.000000000000e+00,8.000000000000e-01,0.000000000000e+00
      20,0.000000000000e+00,8.000000000000e-01,1.000000000000e-01
** ... 64 like lines cut
*ELEMENT, TYPE=F3D8, ELSET=Eall
     1,     1,     2,     3,     4,     5,     6,     7,     8
     2,     2,     9,    10,     3,     6,    11,    12,     7
     3,     9,    13,    14,    10,    11,    15,    16,    12
     4,    13,    17,    18,    14,    15,    19,    20,    16
     5,    17,    21,    22,    18,    19,    23,    24,    20
     6,    21,    25,    26,    22,    23,    27,    28,    24
     7,    25,    29,    30,    26,    27,    31,    32,    28
     8,    29,    33,    34,    30,    31,    35,    36,    32
     9,    33,    37,    38,    34,    35,    39,    40,    36
    10,    37,    41,    42,    38,    39,    43,    44,    40
    11,    41,    45,    46,    42,    43,    47,    48,    44
    12,    45,    49,    50,    46,    47,    51,    52,    48
    13,    49,    53,    54,    50,    51,    55,    56,    52
    14,    53,    57,    58,    54,    55,    59,    60,    56
    15,    57,    61,    62,    58,    59,    63,    64,    60
    16,    61,    65,    66,    62,    63,    67,    68,    64
    17,    65,    69,    70,    66,    67,    71,    72,    68
    18,    69,    73,    74,    70,    71,    75,    76,    72
    19,    73,    77,    78,    74,    75,    79,    80,    76
    20,    77,    81,    82,    78,    79,    83,    84,    80
** Surfaces based on mast
*SURFACE, NAME=Smast
1, S1
2, S1
3, S1
4, S1
5, S1
6, S1
7, S1
8, S1
9, S1
10, S1
11, S1
12, S1
13, S1
14, S1
15, S1
16, S1
17, S1
18, S1
19, S1
20, S1
** Surfaces based on slav
*SURFACE, NAME=Sslav
1, S2
2, S2
3, S2
4, S2
5, S2
6, S2
7, S2
8, S2
9, S2
10, S2
11, S2
12, S2
13, S2
14, S2
15, S2
16, S2
17, S2
18, S2
19, S2
20, S2
*TIE,FLUIDPERIODIC,NAME=T1
Sslav,Smast
*CYCLIC SYMMETRY MODEL,TIE=T1
0.1,0.,0.
*SURFACE,NAME=SOLIDSURFACE
1,S6
20,S4
*ELSET,ELSET=E1
1,2,3,4,5,6,7,8,9,10,
11,12,13,14,15,16,17,18,19,20
*MATERIAL,NAME=WATER
*DENSITY
1.
*FLUID CONSTANTS
1.,1.
*CONDUCTIVITY
1.
*SOLID SECTION,ELSET=Eall,MATERIAL=WATER
*INITIAL CONDITIONS,TYPE=PRESSURE
Nall,1.
*INITIAL CONDITIONS,TYPE=TEMPERATURE
Nall,1.
*INITIAL CONDITIONS,TYPE=FLUID VELOCITY
Nall,1,0.
Nall,2,0.
Nall,3,0.
*STEP,INCF=1000
*CFD,STEADY STATE
1.,1.,,,0.01
*BOUNDARYF
1,S6,1,1,1.
1,S6,2,3,0.
1,S6,11,11,1.
20,S4,1,3,0.
20,s4,11,11,1.
E1,S3,3,3,0.
E1,S5,3,3,0.
*NODE PRINT,FREQUENCYF=1000,NSET=Nall
VF,TSF
*END STEP
