**
**   Structure: two cubes, one of which is a rigid body.
**   Test objective: linear dynamic calculations of a
**                   rotating rigid body
**
*NODE, NSET=Nall
       1,7.5000000000000e-01,5.0000000000000e-01,5.0000000000000e-01
       2,7.5000000000000e-01,6.9388939039072e-18,5.0000000000000e-01
       3,7.5000000000000e-01,6.9388939039072e-18,1.0000000000000e+00
       4,7.5000000000000e-01,5.0000000000000e-01,1.0000000000000e+00
       5,2.5000000000000e-01,5.0000000000000e-01,5.0000000000000e-01
       6,2.5000000000000e-01,6.9388939039072e-18,5.0000000000000e-01
       7,2.5000000000000e-01,6.9388939039072e-18,1.0000000000000e+00
       8,2.5000000000000e-01,5.0000000000000e-01,1.0000000000000e+00
       9,7.5000000000000e-01,2.5000000000000e-01,5.0000000000000e-01
      10,7.5000000000000e-01,6.9388939039072e-18,7.5000000000000e-01
      11,7.5000000000000e-01,2.5000000000000e-01,1.0000000000000e+00
      12,7.5000000000000e-01,5.0000000000000e-01,7.5000000000000e-01
      13,5.0000000000000e-01,5.0000000000000e-01,5.0000000000000e-01
      14,5.0000000000000e-01,6.9388939039072e-18,5.0000000000000e-01
      15,5.0000000000000e-01,6.9388939039072e-18,1.0000000000000e+00
      16,5.0000000000000e-01,5.0000000000000e-01,1.0000000000000e+00
      17,2.5000000000000e-01,2.5000000000000e-01,5.0000000000000e-01
      18,2.5000000000000e-01,6.9388939039072e-18,7.5000000000000e-01
      19,2.5000000000000e-01,2.5000000000000e-01,1.0000000000000e+00
      20,2.5000000000000e-01,5.0000000000000e-01,7.5000000000000e-01
** ... 22 like lines cut
*ELEMENT, TYPE=C3D20, ELSET=Eall
     1,     1,     2,     3,     4,     5,     6,     7,     8,     9,    10,
          11,    12,    17,    18,    19,    20,    13,    14,    15,    16
     2,    21,    22,    23,    24,    25,    26,    27,    28,    29,    30,
          31,    32,    37,    38,    39,    40,    33,    34,    35,    36
*NSET,NSET=Nfix
22,30,23,29,31,21,32,24
*NSET,NSET=EL1
1,2,3,4,5,6,7,8,9,10,11,12,13,14,15,16,
17,18,19,20
*BOUNDARY
Nfix,1,3
*RIGID BODY,NSET=EL1,REFNODE=41,ROTNODE=42
*MATERIAL,NAME=EL
*ELASTIC
210000.,.3
*DENSITY
7.8e-9
*SOLID SECTION,ELSET=Eall,MATERIAL=EL
*NSET,NSET=OUT
41,42
*STEP
*FREQUENCY,STORAGE=YES
8
*END STEP
*STEP,INC=160
*MODAL DYNAMIC
1.E-7,1.6E-5
*MODAL DAMPING,RAYLEIGH
,,5000.,0.
*CLOAD
6,2,1.
7,2,1.
*NODE PRINT,NSET=OUT
U
*END STEP

