**
**   Structure: two cubes.
**   Test objective: sticking friction contact.
**
**
*NODE, NSET=Nall
       1,1.000000000000e+00,1.000000000000e+00,0.000000000000e+00
       2,1.000000000000e+00,7.500000000000e-01,0.000000000000e+00
       3,1.000000000000e+00,7.500000000000e-01,2.500000000000e-01
       4,1.000000000000e+00,1.000000000000e+00,2.500000000000e-01
       5,7.500000000000e-01,1.000000000000e+00,0.000000000000e+00
       6,7.500000000000e-01,7.500000000000e-01,0.000000000000e+00
       7,7.500000000000e-01,7.500000000000e-01,2.500000000000e-01
       8,7.500000000000e-01,1.000000000000e+00,2.500000000000e-01
       9,1.000000000000e+00,7.500000000000e-01,5.000000000000e-01
      10,1.000000000000e+00,1.000000000000e+00,5.000000000000e-01
      11,7.500000000000e-01,7.500000000000e-01,5.000000000000e-01
      12,7.500000000000e-01,1.000000000000e+00,5.000000000000e-01
      13,1.000000000000e+00,7.500000000000e-01,7.500000000000e-01
      14,1.000000000000e+00,1.000000000000e+00,7.500000000000e-01
      15,7.500000000000e-01,7.500000000000e-01,7.500000000000e-01
      16,7.500000000000e-01,1.000000000000e+00,7.500000000000e-01
      17,1.000000000000e+00,7.500000000000e-01,1.000000000000e+00
      18,1.000000000000e+00,1.000000000000e+00,1.000000000000e+00
      19,7.500000000000e-01,7.500000000000e-01,1.000000000000e+00
      20,7.500000000000e-01,1.000000000000e+00,1.000000000000e+00
** ... 230 like lines cut
*ELEMENT, TYPE=C3D8, ELSET=Eall
     1,     1,     2,     3,     4,     5,     6,     7,     8
     2,     4,     3,     9,    10,     8,     7,    11,    12
     3,    10,     9,    13,    14,    12,    11,    15,    16
     4,    14,    13,    17,    18,    16,    15,    19,    20
     5,     5,     6,     7,     8,    21,    22,    23,    24
     6,     8,     7,    11,    12,    24,    23,    25,    26
     7,    12,    11,    15,    16,    26,    25,    27,    28
     8,    16,    15,    19,    20,    28,    27,    29,    30
     9,    21,    22,    23,    24,    31,    32,    33,    34
    10,    24,    23,    25,    26,    34,    33,    35,    36
    11,    26,    25,    27,    28,    36,    35,    37,    38
    12,    28,    27,    29,    30,    38,    37,    39,    40
    13,    31,    32,    33,    34,    41,    42,    43,    44
    14,    34,    33,    35,    36,    44,    43,    45,    46
    15,    36,    35,    37,    38,    46,    45,    47,    48
    16,    38,    37,    39,    40,    48,    47,    49,    50
    17,     2,    51,    52,     3,     6,    53,    54,     7
    18,     3,    52,    55,     9,     7,    54,    56,    11
    19,     9,    55,    57,    13,    11,    56,    58,    15
    20,    13,    57,    59,    17,    15,    58,    60,    19
** ... 108 like lines cut
*NSET,NSET=Nfix 
1, 
2, 
5, 
6, 
21, 
22, 
31, 
32, 
41, 
42, 
51, 
53, 
61, 
66, 
71, 
76, 
78, 
86, 
91, 
96, 
** ... 5 like lines cut
*NSET,NSET=Nload 
142, 
143, 
144, 
145, 
154, 
155, 
164, 
165, 
174, 
175, 
184, 
185, 
190, 
195, 
200, 
209, 
210, 
215, 
220, 
225, 
** ... 5 like lines cut
*SURFACE, NAME=Smast
4, S5 
8, S5 
12, S5 
16, S5 
20, S5 
24, S5 
28, S5 
32, S5 
36, S5 
40, S5 
44, S5 
48, S5 
52, S5 
56, S5 
60, S5 
64, S5 
*SURFACE, NAME=Sslav
65, S3 
69, S3 
73, S3 
77, S3 
81, S3 
85, S3 
89, S3 
93, S3 
97, S3 
101, S3 
105, S3 
109, S3 
113, S3 
117, S3 
121, S3 
125, S3 
*MATERIAL,NAME=EL
*ELASTIC
210000.,.3
*DENSITY
7.8E-9
*SOLID SECTION,ELSET=Eall,MATERIAL=EL
*BOUNDARY
Nfix,1,3
Nload,1,2
*CONTACT PAIR,INTERACTION=SI1,TYPE=NODE TO SURFACE
Sslav,Smast
*SURFACE INTERACTION,NAME=SI1
*SURFACE BEHAVIOR,PRESSURE-OVERCLOSURE=LINEAR
1.e7,3.
*FRICTION
0.2,47000
*AMPLITUDE,NAME=A1
0.,1.,1.,1.
*STEP,NLGEOM
*STATIC
1.,1.
*DLOAD,AMPLITUDE=A1
68, P5, 100.000000 
72, P5, 100.000000 
76, P5, 100.000000 
80, P5, 100.000000 
84, P5, 100.000000 
88, P5, 100.000000 
92, P5, 100.000000 
96, P5, 100.000000 
100, P5, 100.000000 
104, P5, 100.000000 
108, P5, 100.000000 
112, P5, 100.000000 
116, P5, 100.000000 
120, P5, 100.000000 
124, P5, 100.000000 
128, P5, 100.000000 
*CONTACT PRINT,NSET=Nall
CDISP,CSTRESS
*END STEP

