**
**      Structure: linear gas network
**      Test Objective: test of two phase flow (oil/air) 
**             in a series of 8 adiabatic Fanno pipes
**
*HEADING
Model: linear net 3 elements Dtype 
*NODE,NSET= NALL
1, 1, 0, 0
2, 2, 0, 0
3, 3, 0, 0
4, 4, 0, 0
5, 5, 0, 0
6, 6, 0, 0
7, 7, 0, 0
8, 8, 0, 0
9, 9, 0, 0
10,10,0, 0
11,11,0, 0
12,12,0, 0
13,13,0, 0
14,14,0, 0
15,15,0, 0
16,16,0, 0
17,17,0,0
18,18,0,0
19,19,0,0
20,20,0,0
21,21,0,0
*ELEMENT, TYPE=D,ELSET=EGAS
1, 0, 1, 2
2, 2, 3, 4
3, 4, 5, 6
4, 6, 7, 8
5, 8, 9, 10
6,10,11,12
7,12,13,14
8,14,15,16
9,16,17,18
10,18,19,20
11,20,21,0
*MATERIAL,NAME=GAS
*CONDUCTIVITY
50.,0.
*FLUID CONSTANTS
1.0022E9,1.69532E-11,270
1.0045E9,1.84135E-11,300
1.0131E9,2.28232E-11,400
1.0292E9,2.66931E-11,500
1.0506E9,3.01677E-11,600
1.0745E9,3.33396E-11,700
1.0982E9,3.62717E-11,800
1.1204E9,3.90084E-11,900
1.1405E9,4.15824E-11,1000
1.1583E9,4.40182E-11,1100
1.1739E9,4.63352E-11,1200
1.1976E9,4.85486E-11,1300
1.1997E9,5.06708E-11,1400
1.2104E9,5.27117E-11,1500
1.2199E9,5.46798E-11,1600
1.2284E9,5.65822E-11,1700
1.2361E9,5.84249E-11,1800
1.2431E9,6.02131E-11,1900
1.2495E9,6.19512E-11,2000

*SPECIFIC GAS CONSTANT
287E6

*MATERIAL,NAME=MOBIL_OIL
*CONDUCTIVITY
50.,0.
*FLUID CONSTANTS
1.7700214E+09,7.01104E+11, 280			 
1.7987529E+09,1.40536E+11, 290			 
1.8274845E+09,6.13910E+10, 300			 
1.9711424E+09,9.67812E+09, 350			 
2.1148002E+09,4.10233E+09, 400			 
2.2584581E+09,2.35820E+09, 450			 
2.4021159E+09,1.57709E+09, 500			 
2.5457738E+09,1.15566E+09, 550			 
2.6894316E+09,9.00782E+08, 600  		 
2.8330895E+09,7.34416E+08, 650			 
2.9767473E+09,6.19871E+08, 700			 
3.1204052E+09,5.37974E+08, 750			 
3.2640630E+09,4.77896E+08, 800			 
3.4077209E+09,4.33156E+08, 850			 
3.5513787E+09,3.99719E+08, 900			 
3.6950366E+09,3.75013E+08, 950			 
3.8386944E+09,3.57405E+08, 1000	
*DENSITY
9.12274E-10, 280
9.05374E-10, 290
8.98474E-10, 300
8.63974E-10, 350
8.29474E-10, 400
7.94974E-10, 450
7.60474E-10, 500
7.25974E-10, 550
6.91474E-10, 600 
6.56974E-10, 650
6.22474E-10, 700
5.87974E-10, 750
5.53474E-10, 800
5.18974E-10, 850
4.84474E-10, 900
4.49974E-10, 950
4.15474E-10, 1000

*FLUID SECTION,MATERIAL=GAS,ELSET=EGAS,TYPE=GAS PIPE FANNO ADIABATIC,OIL=MOBIL_OIL
706.8583,30,55.55,0,1,1E-4,0,0
*BOUNDARY
2,0,0,550
4,0,0,550
6,0,0,550
8,0,0,550
10,0,0,550
12,0,0,550
14,0,0,550
16,0,0,550
18,0,0,550
20,0,0,550
2,2,2,0.47
20,2,2,0.45
*STEP,INC=100
*HEAT TRANSFER,STEADY STATE
1.,1.
*NODE PRINT,NSET=NALL
U,NT
*END STEP
