**
**   Structure: metal forming configuration.
**   Test objective: contact combined with plasticity.
**                   change the step time to 1. to get
**                   the complete forming process
**
*node, nset=nall
    1, -9.18485e-17, 9.75, 0, 
    2, 0, 10.25, 0, 
    3, -1.83697e-16, 9.25, 0, 
    4, -2.75546e-16, 8.75, 0, 
    5, -3.67394e-16, 8.25, 0, 
    6, -4.59243e-16, 7.75, 0, 
    7, -5.51091e-16, 7.25, 0, 
    8, -6.4294e-16, 6.75, 0, 
    9, -7.34788e-16, 6.25, 0, 
    10, -8.26637e-16, 5.75, 0, 
    11, -9.18485e-16, 5.25, 0, 
    12, -1.01033e-15, 4.75, 0, 
    13, -1.10218e-15, 4.25, 0, 
    14, -1.19403e-15, 3.75, 0, 
    15, -1.28588e-15, 3.25, 0, 
    16, -1.37773e-15, 2.75, 0, 
    17, -1.46958e-15, 2.25, 0, 
    18, -1.56142e-15, 1.75, 0, 
    19, -1.65327e-15, 1.25, 0, 
    20, -1.74512e-15, 0.75, 0, 
** ... 2012 like lines cut

*nset, nset=sheetleft
    1021, 1022, 1020, 
*nset, nset=sheetdown
    1023, 1024, 1025, 1026, 1027, 1028, 1029, 
    1030, 1031, 1032, 1033, 1034, 1035, 1036, 1037, 
    1038, 1039, 1040, 1041, 1042, 1043, 1044, 1045, 
    1046, 1047, 1048, 1049, 1050, 1051, 1052, 1053, 
    1054, 1055, 1056, 1057, 1058, 1059, 1060, 1061, 
    1062, 1063, 1064, 1065, 1066, 1067, 1068, 1069, 
    1070, 1071, 1072, 1073, 1074, 1075, 1076, 1077, 
    1078, 1079, 1080, 1081, 1082, 1083, 1084, 1085, 
    1086, 1087, 1088, 1089, 1090, 1091, 1092, 1093, 
    1094, 1095, 1096, 1097, 1098, 1099, 1100, 1101, 
    1102, 1103, 1104, 1105, 1106, 1107, 1108, 1109, 
    1110, 1111, 1112, 1113, 1114, 1115, 1116, 1117, 
    1118, 1119, 1120, 1121, 1122, 1123, 1124, 1125, 
    1126, 1127, 1128, 1129, 1130, 1131, 1022, 1132, 
*nset, nset=sheetup
    910, 912, 913, 914, 915, 916, 917, 
    918, 919, 920, 921, 922, 923, 924, 925, 
    926, 927, 928, 929, 930, 931, 932, 933, 
    934, 935, 936, 937, 938, 939, 940, 941, 
    942, 943, 944, 945, 946, 947, 948, 949, 
    950, 951, 952, 953, 954, 955, 956, 957, 
    958, 959, 960, 961, 962, 963, 964, 965, 
    966, 967, 968, 969, 970, 971, 972, 973, 
    974, 975, 976, 977, 978, 979, 980, 981, 
    982, 983, 984, 985, 986, 987, 988, 989, 
    990, 991, 992, 993, 994, 995, 996, 997, 
    998, 999, 1000, 1001, 1002, 1003, 1004, 1005, 
    1006, 1007, 1008, 1009, 1010, 1011, 1012, 1013, 
    1014, 1015, 1016, 1017, 1018, 1019, 1020, 911, 
*nset, nset=sheetright
    1133, 1132, 911, 
*nset, nset=matrizedown
    1592, 1593, 1594, 1595, 1596, 1597, 1598, 
    1599, 1600, 1601, 1591, 
*nset, nset=matrizeright
    1602, 1603, 1604, 1605, 1606, 1607, 1608, 
    1609, 1610, 1611, 1612, 1613, 1614, 1615, 1616, 
    1617, 1618, 1619, 1620, 1601, 1621, 
*nset, nset=matrizeup
    1573, 1574, 1575, 1576, 1577, 1578, 1579, 
    1580, 1581, 1582, 1583, 1584, 1585, 1586, 1587, 
    1588, 1589, 1590, 1622, 1623, 1624, 1625, 1626, 
    1627, 1628, 1629, 1630, 1631, 1591, 1621, 
*nset, nset=stempelleft
    1, 3, 4, 5, 6, 7, 8, 
    9, 10, 11, 12, 13, 14, 15, 16, 
    17, 18, 19, 20, 21, 2, 
*nset, nset=stempelup
    59, 60, 61, 62, 63, 64, 65, 
    66, 67, 68, 69, 70, 71, 72, 73, 
    74, 75, 76, 77, 58, 2, 
*nset, nset=stempeldown
    22, 23, 24, 25, 26, 27, 28, 
    29, 30, 31, 32, 33, 34, 35, 36, 
    37, 38, 39, 40, 41, 42, 43, 44, 
    45, 46, 47, 48, 49, 50, 51, 52, 
    53, 54, 55, 56, 57, 21, 58, 
*nset, nset=Grstempel_Nodes
    470, 558, 559, 561, 563, 565, 567, 
    569, 571, 573, 575, 577, 579, 581, 583, 
    585, 587, 589, 591, 557, 78, 79, 80, 
    81, 82, 83, 84, 85, 86, 87, 88, 
    89, 90, 91, 92, 93, 94, 95, 96, 
    97, 98, 99, 100, 101, 102, 103, 104, 
    105, 106, 107, 108, 109, 110, 111, 112, 
    113, 114, 115, 116, 117, 118, 119, 120, 
    121, 122, 123, 124, 125, 126, 127, 128, 
    129, 130, 131, 132, 133, 134, 135, 136, 
    137, 138, 139, 140, 141, 142, 143, 144, 
    145, 146, 147, 148, 149, 150, 151, 152, 
    153, 154, 155, 156, 157, 158, 159, 160, 
    161, 162, 163, 164, 165, 166, 167, 168, 
    169, 170, 171, 172, 173, 174, 175, 176, 
    177, 178, 179, 180, 181, 182, 183, 184, 
    185, 186, 187, 188, 189, 190, 191, 192, 
    193, 194, 195, 196, 197, 198, 199, 200, 
    201, 202, 203, 204, 205, 206, 207, 208, 
    209, 210, 211, 212, 213, 214, 215, 216, 
** ... 94 like lines cut
*nset, nset=stempelup_rotated_1
    470, 558, 559, 561, 563, 565, 567, 
    569, 571, 573, 575, 577, 579, 581, 583, 
    585, 587, 589, 591, 557, 
*nset, nset=stempeldown_rotated_1
    557, 467, 468, 490, 491, 493, 495, 
    497, 499, 501, 503, 505, 507, 509, 511, 
    513, 515, 517, 519, 521, 523, 525, 527, 
    529, 531, 533, 535, 537, 539, 541, 543, 
    545, 547, 549, 551, 553, 555, 
*nset, nset=Grsheet_Nodes
    1134, 1135, 1136, 1137, 1138, 1139, 1140, 
    1141, 1142, 1143, 1144, 1145, 1146, 1147, 1148, 
    1149, 1150, 1151, 1152, 1153, 1154, 1155, 1156, 
    1157, 1158, 1159, 1160, 1161, 1162, 1163, 1164, 
    1165, 1166, 1167, 1168, 1169, 1170, 1171, 1172, 
    1173, 1174, 1175, 1176, 1177, 1178, 1179, 1180, 
    1181, 1182, 1183, 1184, 1185, 1186, 1187, 1188, 
    1189, 1190, 1191, 1192, 1193, 1194, 1195, 1196, 
    1197, 1198, 1199, 1200, 1201, 1202, 1203, 1204, 
    1205, 1206, 1207, 1208, 1209, 1210, 1211, 1212, 
    1213, 1214, 1215, 1216, 1217, 1218, 1219, 1220, 
    1221, 1222, 1223, 1224, 1225, 1226, 1227, 1228, 
    1229, 1230, 1231, 1232, 1233, 1234, 1235, 1236, 
    1237, 1238, 1239, 1240, 1241, 1242, 1243, 1246, 
    1247, 1250, 1251, 1254, 1255, 1258, 1259, 1262, 
    1263, 1266, 1267, 1270, 1271, 1274, 1275, 1278, 
    1279, 1282, 1283, 1286, 1287, 1290, 1292, 1294, 
    1295, 1298, 1299, 1302, 1303, 1306, 1307, 1310, 
    1311, 1314, 1315, 1318, 1319, 1322, 1323, 1326, 
    1327, 1330, 1331, 1334, 1335, 1338, 1339, 1342, 
** ... 63 like lines cut
*nset, nset=sheetup_rotated_1
    1244, 1245, 1248, 1249, 1252, 1253, 1256, 
    1257, 1260, 1261, 1264, 1265, 1268, 1269, 1272, 
    1273, 1276, 1277, 1280, 1281, 1284, 1285, 1288, 
    1289, 1291, 1293, 1296, 1297, 1300, 1301, 1304, 
    1305, 1308, 1309, 1312, 1313, 1316, 1317, 1320, 
    1321, 1371, 1373, 1375, 1377, 1379, 1381, 1383, 
    1385, 1387, 1389, 1391, 1393, 1394, 1395, 1397, 
    1399, 1401, 1403, 1405, 1406, 1407, 1409, 1411, 
    1413, 1415, 1417, 1418, 1419, 1421, 1423, 1425, 
    1426, 1427, 1428, 1430, 1431, 1432, 1434, 1435, 
    1436, 1437, 1438, 1439, 1440, 1442, 1443, 1444, 
    1445, 1446, 1447, 1448, 1450, 1452, 1454, 1456, 
    1458, 1460, 1462, 1464, 1466, 1468, 1470, 1472, 
    1474, 1476, 1478, 1480, 1482, 1484, 1370, 
*nset, nset=sheetdown_rotated_1
    1324, 1325, 1328, 1329, 1332, 1333, 1336, 
    1337, 1340, 1341, 1344, 1345, 1348, 1349, 1352, 
    1353, 1355, 1358, 1359, 1362, 1363, 1366, 1367, 
    1486, 1487, 1488, 1489, 1490, 1491, 1492, 1493, 
    1494, 1495, 1496, 1497, 1498, 1499, 1500, 1501, 
    1502, 1503, 1504, 1505, 1506, 1507, 1508, 1509, 
    1510, 1511, 1512, 1513, 1514, 1515, 1516, 1517, 
    1518, 1519, 1520, 1521, 1522, 1523, 1524, 1525, 
    1526, 1527, 1528, 1529, 1530, 1531, 1532, 1533, 
    1534, 1535, 1536, 1537, 1538, 1539, 1540, 1541, 
    1542, 1543, 1544, 1545, 1546, 1547, 1548, 1549, 
    1550, 1551, 1552, 1553, 1554, 1555, 1556, 1557, 
    1558, 1559, 1560, 1561, 1562, 1563, 1564, 1565, 
    1566, 1567, 1568, 1569, 1570, 1571, 1572, 
*nset, nset=sheetright_rotated_1
    1369, 1370, 1572, 
*nset, nset=Grmatrize_Nodes
    1632, 1633, 1634, 1635, 1636, 1637, 1638, 
    1639, 1640, 1641, 1642, 1643, 1644, 1645, 1646, 
    1647, 1648, 1649, 1650, 1651, 1652, 1653, 1654, 
    1655, 1656, 1657, 1658, 1659, 1660, 1661, 1662, 
    1663, 1664, 1665, 1666, 1667, 1668, 1669, 1670, 
    1671, 1672, 1673, 1674, 1675, 1676, 1677, 1678, 
    1679, 1680, 1681, 1682, 1683, 1684, 1685, 1686, 
    1687, 1688, 1689, 1690, 1691, 1692, 1693, 1694, 
    1695, 1696, 1697, 1698, 1699, 1700, 1701, 1702, 
    1703, 1704, 1705, 1706, 1707, 1708, 1709, 1710, 
    1711, 1712, 1713, 1714, 1715, 1716, 1717, 1718, 
    1719, 1720, 1721, 1722, 1723, 1724, 1725, 1726, 
    1727, 1728, 1729, 1730, 1731, 1732, 1733, 1734, 
    1735, 1736, 1737, 1738, 1739, 1740, 1741, 1742, 
    1743, 1744, 1745, 1746, 1747, 1748, 1749, 1750, 
    1751, 1752, 1753, 1754, 1755, 1756, 1757, 1758, 
    1759, 1760, 1761, 1762, 1763, 1764, 1765, 1766, 
    1767, 1768, 1769, 1770, 1771, 1772, 1773, 1774, 
    1775, 1776, 1777, 1778, 1779, 1780, 1781, 1782, 
    1783, 1784, 1785, 1786, 1787, 1788, 1789, 1790, 
** ... 38 like lines cut
*nset, nset=matrizeup_rotated_1
    1804, 1805, 1808, 1809, 1812, 1813, 1816, 
    1817, 1819, 1821, 1823, 1825, 1827, 1829, 1831, 
    1833, 1835, 1837, 1896, 1897, 1899, 1901, 1903, 
    1905, 1907, 1909, 1911, 1913, 1839, 1895, 
*nset, nset=matrizedown_rotated_1
    1840, 1841, 1843, 1845, 1847, 1849, 1851, 
    1853, 1855, 1839, 1857, 
*nset, nset=matrizeright_rotated_1
    1858, 1859, 1861, 1863, 1865, 1867, 1869, 
    1871, 1873, 1875, 1877, 1879, 1881, 1883, 1885, 
    1887, 1889, 1891, 1893, 1895, 1857, 
*element, elset=C3D8,type=C3D8
    1, 1156, 1180, 1067, 1066, 1287, 1335, 1336, 1523, 
    2, 1202, 1203, 923, 922, 1382, 1384, 1383, 1381, 
    3, 1139, 1201, 921, 920, 1254, 1380, 1379, 1253, 
    4, 1727, 1690, 1640, 1639, 1957, 1920, 1820, 1818, 
    5, 1146, 1222, 1083, 1082, 1267, 1433, 1534, 1533, 
    6, 1692, 1685, 1632, 1642, 1922, 1915, 1803, 1824, 
    7, 1726, 1727, 1639, 1638, 1956, 1957, 1818, 1815, 
    8, 109, 110, 34, 33, 512, 514, 513, 511, 
    9, 1688, 1694, 1643, 1635, 1918, 1924, 1826, 1810, 
    10, 1645, 1646, 1585, 1584, 1830, 1832, 1831, 1829, 
    11, 1192, 1191, 949, 948, 1360, 1357, 1418, 1417, 
    12, 1644, 1645, 1584, 1583, 1828, 1830, 1829, 1827, 
    13, 1187, 1221, 1086, 1085, 1350, 1429, 1535, 1349, 
    14, 1182, 1183, 1072, 1071, 1339, 1342, 1341, 1340, 
    15, 1136, 1137, 917, 916, 1247, 1250, 1249, 1248, 
    16, 1796, 1795, 1785, 1784, 2026, 2025, 2015, 2014, 
    17, 107, 108, 32, 31, 508, 510, 509, 507, 
    18, 1678, 1679, 1626, 1625, 1902, 1904, 1903, 1901, 
    19, 1802, 1800, 1781, 1780, 2032, 2030, 2011, 2010, 
    20, 1215, 1214, 1098, 1097, 1412, 1410, 1542, 1541, 
** ... 800 like lines cut
*elset, elset=Grsheet_Volumes
    1, 2, 3, 5, 11, 13, 14, 
    15, 20, 21, 22, 23, 28, 50, 54, 
    57, 72, 95, 101, 102, 107, 108, 111, 
    112, 133, 134, 135, 136, 140, 141, 142, 
    145, 146, 149, 150, 151, 153, 154, 155, 
    156, 157, 159, 161, 162, 166, 167, 175, 
    177, 178, 180, 186, 194, 204, 207, 209, 
    216, 217, 227, 235, 239, 241, 243, 244, 
    245, 247, 249, 251, 258, 259, 272, 286, 
    288, 290, 298, 299, 300, 302, 304, 305, 
    306, 308, 318, 320, 327, 328, 330, 353, 
    354, 365, 370, 373, 377, 378, 379, 380, 
    381, 383, 385, 387, 389, 394, 395, 406, 
    420, 421, 422, 423, 424, 426, 427, 428, 
    429, 433, 436, 437, 439, 440, 441, 442, 
    443, 445, 446, 449, 462, 470, 473, 482, 
    488, 494, 498, 506, 508, 509, 516, 519, 
    523, 524, 525, 526, 529, 531, 535, 555, 
    557, 559, 561, 563, 564, 565, 566, 569, 
    570, 574, 575, 577, 580, 583, 584, 604, 
** ... 8 like lines cut
*elset, elset=Grmatrize_Volumes
    4, 6, 7, 9, 10, 12, 16, 
    18, 19, 25, 27, 30, 35, 37, 42, 
    43, 47, 53, 59, 62, 76, 85, 88, 
    89, 91, 92, 94, 97, 98, 99, 100, 
    103, 104, 105, 106, 109, 110, 113, 129, 
    130, 132, 137, 138, 139, 147, 148, 152, 
    160, 163, 164, 168, 183, 185, 188, 197, 
    205, 213, 214, 223, 226, 229, 232, 234, 
    236, 237, 248, 250, 252, 253, 254, 256, 
    280, 281, 282, 283, 284, 285, 287, 289, 
    291, 292, 293, 294, 295, 296, 297, 301, 
    303, 307, 310, 312, 315, 323, 325, 326, 
    352, 359, 367, 369, 382, 384, 386, 388, 
    390, 392, 396, 398, 411, 415, 416, 418, 
    419, 430, 431, 432, 434, 435, 438, 447, 
    448, 450, 452, 457, 461, 465, 480, 481, 
    484, 486, 490, 499, 500, 502, 510, 511, 
    512, 513, 518, 520, 527, 551, 552, 553, 
    556, 560, 562, 568, 571, 573, 576, 579, 
    581, 582, 600, 603, 614, 620, 623, 641, 
** ... 5 like lines cut
*elset, elset=Grstempel_Volumes
    8, 17, 24, 26, 29, 31, 32, 
    33, 34, 36, 38, 39, 40, 41, 44, 
    45, 46, 48, 49, 51, 52, 55, 56, 
    58, 60, 61, 63, 64, 65, 66, 67, 
    68, 69, 70, 71, 73, 74, 75, 77, 
    78, 79, 80, 81, 82, 83, 84, 86, 
    87, 90, 93, 96, 114, 115, 116, 117, 
    118, 119, 120, 121, 122, 123, 124, 125, 
    126, 127, 128, 131, 143, 144, 158, 165, 
    169, 170, 171, 172, 173, 174, 176, 179, 
    181, 182, 184, 187, 189, 190, 191, 192, 
    193, 195, 196, 198, 199, 200, 201, 202, 
    203, 206, 208, 210, 211, 212, 215, 218, 
    219, 220, 221, 222, 224, 225, 228, 230, 
    231, 233, 238, 240, 242, 246, 255, 257, 
    260, 261, 262, 263, 264, 265, 266, 267, 
    268, 269, 270, 271, 273, 274, 275, 276, 
    277, 278, 279, 309, 311, 313, 314, 316, 
    317, 319, 321, 322, 324, 329, 331, 332, 
    333, 334, 335, 336, 337, 338, 339, 340, 
** ... 31 like lines cut
*element, elset=C3D6,type=C3D6
    821, 7, 476, 85, 8, 477, 86, 
    822, 4, 473, 82, 5, 474, 83, 
    823, 382, 353, 351, 826, 797, 795, 
    824, 2, 470, 77, 1, 471, 80, 
    825, 20, 489, 98, 21, 490, 22, 
    826, 17, 486, 95, 18, 487, 96, 
    827, 14, 483, 92, 15, 484, 93, 
    828, 11, 480, 89, 12, 481, 90, 
    829, 8, 477, 86, 9, 478, 87, 
    830, 5, 474, 83, 6, 475, 84, 
    831, 1, 471, 80, 3, 472, 81, 
    832, 1021, 1485, 1242, 1022, 1486, 1023, 
    833, 18, 487, 96, 19, 488, 97, 
    834, 15, 484, 93, 16, 485, 94, 
    835, 1638, 1574, 1631, 1815, 1816, 1913, 
    836, 12, 481, 90, 13, 482, 91, 
    837, 1020, 1484, 1019, 1021, 1485, 1242, 
    838, 9, 478, 87, 10, 479, 88, 
    839, 6, 475, 84, 7, 476, 85, 
    840, 3, 472, 81, 4, 473, 82, 
** ... 8 like lines cut
*elset, elset=Grsheet_Volumes
    832, 837, 
*elset, elset=Grmatrize_Volumes
    835, 
*elset, elset=Grstempel_Volumes
    821, 822, 823, 824, 825, 826, 827, 
    828, 829, 830, 831, 833, 834, 836, 838, 
    839, 840, 841, 842, 843, 844, 845, 846, 
    847, 848, 
*elset, elset=Grstempel_FacesF2
    825, 
*elset, elset=Grstempel_FacesF5
    785, 266, 815, 504, 361, 793, 393, 
    668, 77, 90, 8, 172, 567, 764, 541, 
    67, 17, 578, 255, 489, 444, 515, 451, 
    464, 410, 397, 554, 425, 128, 469, 776, 
    143, 39, 372, 683, 158, 
*elset, elset=Grstempel_FacesF1
    824, 
*elset, elset=Grstempel_FacesF4
    255, 
*elset, elset=Grstempel_FacesF5
    627, 587, 246, 558, 202, 165, 131, 
    655, 599, 179, 550, 231, 572, 686, 144, 
    663, 639, 215, 
*elset, elset=Grstempel_FacesF1
    351, 478, 679, 32, 26, 670, 60, 
    795, 550, 497, 179, 637, 349, 631, 261, 
    346, 444, 650, 324, 578, 404, 206, 125, 
    56, 686, 634, 266, 777, 44, 314, 762, 
    311, 114, 587, 82, 622, 79, 338, 532, 
    618, 596, 158, 277, 675, 487, 412, 337, 
    668, 598, 242, 803, 417, 629, 589, 224, 
    255, 585, 279, 736, 165, 358, 70, 355, 
    609, 791, 65, 368, 567, 40, 472, 680, 
    608, 393, 517, 522, 268, 74, 31, 663, 
    24, 549, 201, 636, 630, 348, 661, 8, 
    55, 407, 260, 219, 344, 184, 322, 810, 
    728, 123, 52, 783, 572, 331, 775, 539, 
    246, 309, 812, 479, 81, 78, 621, 425, 
    336, 530, 616, 460, 275, 193, 408, 335, 
    222, 746, 240, 799, 628, 366, 655, 278, 
    75, 735, 69, 815, 607, 790, 594, 719, 
    514, 713, 546, 471, 678, 606, 221, 496, 
    521, 660, 265, 73, 548, 200, 347, 410, 
    51, 257, 38, 218, 181, 176, 808, 726, 
** ... 32 like lines cut
*elset, elset=Grstempel_FacesF2
    51, 374, 190, 127, 679, 542, 632, 
    334, 650, 467, 414, 44, 785, 802, 266, 
    80, 815, 723, 455, 803, 267, 627, 356, 
    587, 189, 597, 268, 676, 538, 631, 246, 
    504, 41, 809, 120, 558, 79, 466, 361, 
    309, 324, 202, 274, 404, 355, 721, 165, 
    460, 596, 793, 545, 675, 630, 187, 393, 
    496, 713, 40, 131, 472, 78, 339, 752, 
    176, 322, 668, 485, 218, 728, 77, 222, 
    610, 350, 459, 594, 812, 738, 364, 193, 
    34, 56, 495, 711, 90, 38, 278, 203, 
    640, 471, 8, 317, 337, 751, 174, 321, 
    277, 483, 86, 532, 591, 608, 211, 458, 
    593, 417, 626, 363, 791, 33, 70, 493, 
    567, 708, 36, 810, 753, 507, 260, 655, 
    316, 348, 750, 173, 319, 275, 84, 649, 
    530, 590, 621, 210, 456, 592, 546, 362, 
    230, 790, 32, 69, 764, 492, 706, 798, 
    808, 541, 638, 505, 257, 314, 347, 749, 
    171, 264, 273, 731, 83, 765, 589, 619, 
** ... 32 like lines cut
*elset, elset=Grstempel_FacesF5
    843, 830, 828, 839, 836, 821, 844, 
    829, 827, 826, 838, 834, 833, 848, 842, 
    825, 822, 824, 831, 840, 
*elset, elset=stempeldown_rotatedF2
    825, 
*elset, elset=Xstempeldown_rotatedF5
    8,425,815,410,793,397,
    785,393,776,372,764,361
*elset, elset=stempeldown_rotatedF5
    785, 266, 815, 504, 361, 793, 393, 
    668, 77, 90, 8, 172, 567, 764, 541, 
    67, 17, 578, 255, 489, 444, 515, 451, 
    464, 410, 397, 554, 425, 128, 469, 776, 
    143, 39, 372, 683, 158, 
*elset, elset=stempelup_rotatedF1
    824, 
*elset, elset=stempelup_rotatedF4
    255, 
*elset, elset=stempelup_rotatedF5
    627, 587, 246, 558, 202, 165, 131, 
    655, 599, 179, 550, 231, 572, 686, 144, 
    663, 639, 215, 
*elset, elset=Grsheet_FacesF1
    604, 667, 564, 525, 330, 563, 258, 
    327, 440, 108, 642, 28, 439, 526, 145, 
    437, 645, 584, 633, 436, 395, 433, 506, 
    353, 304, 488, 15, 354, 302, 217, 580, 
    300, 696, 583, 299, 747, 577, 801, 298, 
    161, 54, 159, 769, 72, 157, 141, 703, 
    154, 207, 153, 745, 3, 688, 697, 442, 
    462, 151, 797, 684, 665, 524, 150, 149, 
    227, 146, 664, 387, 529, 290, 272, 422, 
    365, 421, 659, 420, 482, 1, 441, 101, 
    820, 249, 819, 557, 381, 741, 555, 112, 
    429, 648, 428, 780, 658, 427, 426, 424, 
    423, 779, 328, 14, 136, 142, 135, 756, 
    693, 245, 134, 162, 107, 194, 5, 691, 
    559, 288, 740, 379, 13, 531, 574, 259, 
    180, 155, 657, 178, 758, 177, 406, 715, 
    95, 23, 653, 784, 22, 373, 140, 251, 
    21, 443, 20, 647, 156, 523, 370, 700, 
    394, 699, 535, 209, 320, 519, 318, 781, 
    186, 570, 561, 743, 771, 494, 739, 516, 
** ... 8 like lines cut
*elset, elset=Grsheet_FacesF2
    157, 739, 186, 703, 780, 561, 529, 
    643, 227, 330, 151, 108, 389, 648, 155, 
    95, 524, 385, 740, 299, 354, 370, 770, 
    819, 445, 720, 697, 566, 429, 421, 141, 
    818, 387, 747, 72, 653, 482, 664, 494, 
    175, 302, 449, 102, 645, 820, 54, 365, 
    563, 22, 154, 580, 207, 395, 11, 149, 
    142, 771, 443, 557, 816, 140, 258, 318, 
    761, 241, 217, 15, 426, 440, 2, 235, 
    688, 239, 559, 575, 583, 180, 209, 519, 
    145, 525, 784, 436, 704, 380, 101, 136, 
    691, 665, 383, 437, 306, 298, 692, 715, 
    564, 320, 473, 420, 555, 446, 428, 707, 
    667, 111, 737, 574, 156, 290, 442, 327, 
    526, 694, 194, 424, 135, 508, 23, 272, 
    178, 439, 107, 146, 259, 781, 797, 373, 
    516, 134, 28, 300, 381, 710, 696, 509, 
    112, 684, 177, 21, 523, 699, 531, 304, 
    216, 286, 244, 657, 506, 243, 758, 441, 
    779, 700, 745, 378, 569, 763, 5, 166, 
** ... 8 like lines cut
*elset, elset=Grsheet_FacesF5
    837, 832, 
*elset, elset=Grsheet_FacesF2
    832, 
*elset, elset=Grsheet_FacesF5
    529, 330, 227, 151, 385, 299, 819, 
    445, 720, 566, 421, 697, 429, 818, 482, 
    494, 302, 820, 563, 154, 22, 149, 557, 
    816, 241, 318, 426, 440, 239, 559, 180, 
    784, 145, 436, 704, 380, 136, 437, 383, 
    692, 298, 715, 320, 564, 473, 420, 555, 
    428, 707, 446, 737, 156, 574, 327, 290, 
    442, 186, 424, 23, 135, 178, 146, 439, 
    781, 134, 300, 28, 710, 177, 699, 21, 
    244, 304, 286, 243, 700, 378, 569, 166, 
    406, 5, 353, 1, 13, 247, 498, 14, 
    161, 433, 377, 150, 422, 423, 159, 153, 
    604, 625, 308, 305, 20, 565, 584, 624, 
    743, 427, 712, 167, 157, 739, 
*elset, elset=Grsheet_FacesF1
    837, 
*elset, elset=Grsheet_FacesF5
    780, 561, 643, 108, 389, 155, 95, 
    648, 524, 740, 354, 370, 770, 141, 387, 
    653, 747, 72, 664, 175, 449, 645, 102, 
    54, 365, 395, 580, 11, 207, 771, 142, 
    443, 258, 140, 761, 217, 15, 2, 235, 
    688, 575, 583, 519, 209, 525, 101, 691, 
    665, 306, 111, 526, 694, 508, 194, 272, 
    107, 259, 797, 516, 381, 696, 509, 684, 
    112, 523, 531, 216, 657, 506, 779, 758, 
    441, 745, 763, 570, 251, 394, 462, 379, 
    741, 204, 658, 57, 801, 659, 669, 470, 
    245, 633, 644, 3, 642, 162, 647, 249, 
    693, 817, 769, 288, 756, 328, 535, 488, 
    577, 50, 133, 703, 
*elset, elset=Grsheet_FacesF6
    667, 373, 
*elset, elset=Grsheet_FacesF4
    584, 
*elset, elset=Grsheet_FacesF6
    162, 
*elset, elset=sheetdown_rotatedF2
    832, 
*elset, elset=sheetdown_rotatedF5
    529, 330, 227, 151, 385, 299, 819, 
    445, 720, 566, 421, 697, 429, 818, 482, 
    494, 302, 820, 563, 154, 22, 149, 557, 
    816, 241, 318, 426, 440, 239, 559, 180, 
    784, 145, 436, 704, 380, 136, 437, 383, 
    692, 298, 715, 320, 564, 473, 420, 555, 
    428, 707, 446, 737, 156, 574, 327, 290, 
    442, 186, 424, 23, 135, 178, 146, 439, 
    781, 134, 300, 28, 710, 177, 699, 21, 
    244, 304, 286, 243, 700, 378, 569, 166, 
    406, 5, 353, 1, 13, 247, 498, 14, 
    161, 433, 377, 150, 422, 423, 159, 153, 
    604, 625, 308, 305, 20, 565, 584, 624, 
    743, 427, 712, 167, 157, 739, 
*elset, elset=sheetup_rotatedF1
    837, 
*elset, elset=sheetup_rotatedF5
    780, 561, 643, 108, 389, 155, 95, 
    648, 524, 740, 354, 370, 770, 141, 387, 
    653, 747, 72, 664, 175, 449, 645, 102, 
    54, 365, 395, 580, 11, 207, 771, 142, 
    443, 258, 140, 761, 217, 15, 2, 235, 
    688, 575, 583, 519, 209, 525, 101, 691, 
    665, 306, 111, 526, 694, 508, 194, 272, 
    107, 259, 797, 516, 381, 696, 509, 684, 
    112, 523, 531, 216, 657, 506, 779, 758, 
    441, 745, 763, 570, 251, 394, 462, 379, 
    741, 204, 658, 57, 801, 659, 669, 470, 
    245, 633, 644, 3, 642, 162, 647, 249, 
    693, 817, 769, 288, 756, 328, 535, 488, 
    577, 50, 133, 703, 
*elset, elset=sheetup_rotatedF6
    667, 373, 
*elset, elset=sheetright_rotatedF4
    584, 
*elset, elset=sheetright_rotatedF6
    162, 
*elset, elset=Grmatrize_FacesF1
    384, 35, 527, 767, 183, 352, 256, 
    9, 97, 432, 104, 185, 484, 418, 94, 
    448, 773, 147, 576, 7, 778, 457, 296, 
    326, 714, 47, 42, 232, 666, 755, 27, 
    6, 359, 774, 106, 382, 748, 297, 229, 
    43, 766, 59, 4, 294, 701, 303, 137, 
    152, 99, 398, 369, 556, 690, 253, 500, 
    742, 687, 148, 283, 130, 465, 518, 652, 
    367, 754, 582, 109, 662, 685, 722, 12, 
    760, 786, 717, 214, 512, 250, 88, 396, 
    553, 10, 37, 285, 490, 312, 510, 280, 
    807, 282, 698, 614, 92, 390, 787, 651, 
    744, 188, 702, 814, 695, 511, 411, 168, 
    85, 386, 234, 646, 252, 53, 89, 560, 
    301, 132, 499, 732, 603, 226, 486, 481, 
    139, 689, 480, 197, 284, 434, 287, 571, 
    623, 734, 325, 620, 30, 573, 292, 248, 
    419, 552, 562, 461, 310, 105, 138, 600, 
    502, 164, 513, 709, 813, 289, 19, 98, 
    205, 18, 76, 163, 307, 113, 435, 727, 
** ... 6 like lines cut
*elset, elset=Grmatrize_FacesF2
    450, 323, 283, 98, 294, 213, 12, 
    94, 168, 652, 518, 614, 432, 620, 310, 
    59, 773, 104, 37, 148, 500, 89, 291, 
    296, 512, 152, 188, 562, 295, 646, 754, 
    396, 282, 85, 510, 132, 687, 392, 435, 
    551, 281, 113, 689, 709, 787, 774, 452, 
    666, 236, 293, 651, 163, 461, 9, 701, 
    813, 484, 352, 419, 229, 398, 490, 499, 
    160, 369, 766, 297, 359, 415, 250, 214, 
    42, 448, 520, 560, 695, 480, 755, 226, 
    185, 25, 717, 568, 92, 552, 582, 307, 
    27, 742, 702, 690, 603, 573, 164, 698, 
    223, 786, 502, 35, 662, 106, 88, 768, 
    447, 53, 91, 254, 253, 416, 600, 6, 
    788, 105, 382, 384, 47, 205, 234, 814, 
    511, 62, 284, 431, 76, 10, 138, 486, 
    481, 430, 99, 748, 248, 232, 43, 732, 
    434, 722, 280, 571, 301, 576, 289, 147, 
    386, 303, 252, 19, 734, 97, 292, 7, 
    513, 183, 685, 130, 438, 760, 16, 30, 
** ... 6 like lines cut
*elset, elset=Grmatrize_FacesF4
    188, 835, 
*elset, elset=Grmatrize_FacesF5
    98, 294, 12, 104, 148, 89, 562, 
    132, 392, 774, 520, 695, 698, 91, 384, 
    284, 10, 138, 248, 97, 237, 315, 18, 
    457, 287, 100, 778, 
*elset, elset=Grmatrize_FacesF4
    465, 
*elset, elset=Grmatrize_FacesF5
    620, 59, 188, 396, 85, 551, 755, 
    226, 717, 254, 253, 147, 513, 256, 390, 
    285, 807, 109, 323, 
*elset, elset=Grmatrize_FacesF4
    138, 
*elset, elset=Grmatrize_FacesF5
    152, 435, 484, 35, 748, 716, 579, 
    714, 465, 
*elset, elset=Xmatrizeup_rotatedF4
    835, 
*elset, elset=Xmatrizeup_rotatedF5
    457,104,392
*elset, elset=matrizeup_rotatedF4
    188, 835, 
*elset, elset=matrizeup_rotatedF5
    98, 294, 12, 104, 148, 89, 562, 
    132, 392, 774, 520, 695, 698, 91, 384, 
    284, 10, 138, 248, 97, 237, 315, 18, 
    457, 287, 100, 778, 
*elset, elset=matrizeright_rotatedF4
    465, 
*elset, elset=matrizeright_rotatedF5
    620, 59, 188, 396, 85, 551, 755, 
    226, 717, 254, 253, 147, 513, 256, 390, 
    285, 807, 109, 323, 
*elset, elset=matrizedown_rotatedF4
    138, 
*elset, elset=matrizedown_rotatedF5
    152, 435, 484, 35, 748, 716, 579, 
    714, 465, 
*transform, type=c, nset=nall
    0.0, 0.0, 0.0,     0.0, 1.0, 0.0
*solid section, material=steel, elset=C3D8
*solid section, material=steel, elset=C3D6
*solid section, material=sheet, elset=Grsheet_Volumes
*material, name=steel
*elastic
    210000.0, 0.3
*material, name=sheet
*elastic
    5000.0, 0.3
*plastic
    50.0, 0.0
    100.0, 0.3
*surface, type=node, name=sheetup
    sheetup
    sheetup_rotated_1
*surface, type=element, name=sheetup
    sheetup_rotatedF5, S5
    sheetup_rotatedF6, S6
*surface, type=node, name=sheetdown
    sheetdown
    sheetdown_rotated_1
*surface, type=element, name=sheetdown
    sheetdown_rotatedF2, S2
    sheetdown_rotatedF5, S5
*surface, type=element, name=stempeldown
    stempeldown_rotatedF2, S2
    stempeldown_rotatedF5, S5
*surface, type=node, name=stempeldown
    stempeldown
    stempeldown_rotated_1
*surface, type=element, name=matrizeup
    matrizeup_rotatedF4, S4
    matrizeup_rotatedF5, S5
*surface, type=node, name=matrizeup
    matrizeup_rotated_1
*Contact Pair, interaction=Kontakt,TYPE=NODE TO SURFACE
    sheetup, stempeldown
*Contact Pair, interaction=Kontakt,TYPE=NODE TO SURFACE
    sheetdown, matrizeup   
*Surface Interaction, name=Kontakt
*Surface Behavior, pressure-overclosure=linear
    5000.0, 1.0
*friction
    0.2,0.001
*boundary
    nall,2,2
    matrizeright, 1,1
    matrizeright, 3,3
    matrizeright_rotated_1, 1,1
    matrizeright_rotated_1, 3,3
    sheetright,1,1
    sheetright,3,3
    sheetright_rotated_1,1,1
    sheetright_rotated_1,3,3
    matrizedown, 1,1
    matrizedown, 3,3
    matrizedown_rotated_1, 1,1
    matrizedown_rotated_1, 3,3
*amplitude,name=a1
    0.,0.,1.,1.
*step,nlgeom,inc=99999
*static
    0.001,0.001, 0.0000001, 0.01
*boundary,amplitude=a1
    stempelup, 3,3, -10.0
    stempelup_rotated_1, 3,3, -10.0
    stempelleft, 3,3, -10.0
    sheetleft, 3,3, -10.0
*contact print
    cdis,cstr
*end step
