**
**   Structure: 1 CPE8 element.
**   Test objective: combination of force and MPC
**
*NODE,NSET=NALL
1,0.,0.,0.
2,1.,0.,0.
3,1.,1.,0.
4,0.,1.,0.
5,.5,0.,0.
6,1.,.5,0.
7,.5,1.,0.
8,0.,.5,0.
*ELEMENT,TYPE=CPE8,ELSET=EALL
1,1,2,3,4,5,6,7,8
*MATERIAL,NAME=EL
*ELASTIC
210000.,.3
*SOLID SECTION,ELSET=EALL,MATERIAL=EL
*BOUNDARY
1,2
2,2
5,2
1,1
*EQUATION
2
3,2,1.,4,2,-1.
2
4,2,1.,7,2,-1.
*STEP
*STATIC
*CLOAD
3,2,1.
*NODE FILE
U,RF
*EL FILE
S,NOE
*END STEP
