**
**   Structure: cantilever beam.
**   Test objective: sensitivity analysis of once-optimized-beam
**
*HEADING
    Model: beam     Date: 10-Mar-1998
*INCLUDE,INPUT=opt3.inc
*ELEMENT, TYPE=C3D20R   , ELSET=Eall
    1,     1,    10,    95,    19,    61,   105,   222,   192,     9,    93,
        94,    20,   104,   220,   221,   193,    62,   103,   219,   190
    2,    10,     2,    13,    95,   105,    34,   134,   222,    11,    12,
        96,    93,   106,   133,   223,   220,   103,    33,   132,   219
    3,    19,    95,    16,     4,   192,   222,   163,    79,    94,    97,
        17,    18,   221,   224,   164,   191,   190,   219,   161,    78
    4,    95,    13,     3,    16,   222,   134,    64,   163,    96,    14,
        15,    97,   223,   135,   162,   224,   219,   132,    63,   161
    5,    61,   105,   222,   192,    59,   109,   228,   196,   104,   220,
        221,   193,   108,   226,   227,   197,    60,   107,   225,   194
    6,   105,    34,   134,   222,   109,    36,   138,   228,   106,   133,
        223,   220,   110,   137,   229,   226,   107,    35,   136,   225
    7,   192,   222,   163,    79,   196,   228,   167,    81,   221,   224,
        164,   191,   227,   230,   168,   195,   194,   225,   165,    80
    8,   222,   134,    64,   163,   228,   138,    66,   167,   223,   135,
        162,   224,   229,   139,   166,   230,   225,   136,    65,   165
    9,    59,   109,   228,   196,    57,   113,   234,   200,   108,   226,
        227,   197,   112,   232,   233,   201,    58,   111,   231,   198
    10,   109,    36,   138,   228,   113,    38,   142,   234,   110,   137,
        229,   226,   114,   141,   235,   232,   111,    37,   140,   231
** ... 44 like lines cut
*NSET,NSET=DESIGNNODES 
    1, 
    2, 
    5, 
    6, 
    9, 
    10, 
    11, 
    12, 
    20, 
    21, 
    22, 
    23, 
    24, 
    32, 
    33, 
    34, 
    35, 
    36, 
    37, 
    38, 
** ... 215 like lines cut
*DESIGN VARIABLES,TYPE=COORDINATE
    DESIGNNODES
*MATERIAL,NAME=EL
*ELASTIC
    210000.0,        .3
*DENSITY
    7.8E-9
*SOLID SECTION,ELSET=Eall,MATERIAL=EL
*STEP
*STATIC
*BOUNDARY
    3,1,3
    4,2,3
    7,1,2
    8,2,2
*CLOAD
    117,2,10.
*NODE FILE
    U
*EL FILE
    S
*END STEP
*STEP
*SENSITIVITY
*OBJECTIVE
    STRESS,DESIGNNODES,10.,100.
*FILTER,TYPE=LINEAR,EDGE PRESERVATION=YES,DIRECTION WEIGHTING=YES
    3.
*CONSTRAINT
    MASS,Eall,LE,1.,
*NODE FILE
    SEN
*END STEP
