**
**   Structure: 2d Poiseuille incompressible fluid flow
**   Test objective: CFD Finite Volume Method
**                   walls at constant temperature 0
**                   mean entrance velocity 1.
**                   pressure at exit 1.
**                   Boundary conditions on surfaces
**   Analytical solution: vmax=1.5
**                        Tmax=0.75
**                        pmax=73.
**
*NODE, NSET=Nall
    1,0.000000000000e+00,0.000000000000e+00,1.000000000000e-01
    2,0.000000000000e+00,1.000000000000e-01,1.000000000000e-01
    3,3.000000000000e-01,1.000000000000e-01,1.000000000000e-01
    4,3.000000000000e-01,0.000000000000e+00,1.000000000000e-01
    5,0.000000000000e+00,0.000000000000e+00,0.000000000000e+00
    6,0.000000000000e+00,1.000000000000e-01,0.000000000000e+00
    7,3.000000000000e-01,1.000000000000e-01,0.000000000000e+00
    8,3.000000000000e-01,0.000000000000e+00,0.000000000000e+00
    9,6.000000000000e-01,1.000000000000e-01,1.000000000000e-01
    10,6.000000000000e-01,0.000000000000e+00,1.000000000000e-01
    11,6.000000000000e-01,1.000000000000e-01,0.000000000000e+00
    12,6.000000000000e-01,0.000000000000e+00,0.000000000000e+00
    13,9.000000000000e-01,1.000000000000e-01,1.000000000000e-01
    14,9.000000000000e-01,0.000000000000e+00,1.000000000000e-01
    15,9.000000000000e-01,1.000000000000e-01,0.000000000000e+00
    16,9.000000000000e-01,0.000000000000e+00,0.000000000000e+00
    17,1.200000000000e+00,1.000000000000e-01,1.000000000000e-01
    18,1.200000000000e+00,0.000000000000e+00,1.000000000000e-01
    19,1.200000000000e+00,1.000000000000e-01,0.000000000000e+00
    20,1.200000000000e+00,0.000000000000e+00,0.000000000000e+00
** ... 442 like lines cut
*ELEMENT, TYPE=F3D8, ELSET=Eall
    1,     1,     2,     3,     4,     5,     6,     7,     8
    2,     4,     3,     9,    10,     8,     7,    11,    12
    3,    10,     9,    13,    14,    12,    11,    15,    16
    4,    14,    13,    17,    18,    16,    15,    19,    20
    5,    18,    17,    21,    22,    20,    19,    23,    24
    6,    22,    21,    25,    26,    24,    23,    27,    28
    7,    26,    25,    29,    30,    28,    27,    31,    32
    8,    30,    29,    33,    34,    32,    31,    35,    36
    9,    34,    33,    37,    38,    36,    35,    39,    40
    10,    38,    37,    41,    42,    40,    39,    43,    44
    11,    42,    41,    45,    46,    44,    43,    47,    48
    12,    46,    45,    49,    50,    48,    47,    51,    52
    13,    50,    49,    53,    54,    52,    51,    55,    56
    14,    54,    53,    57,    58,    56,    55,    59,    60
    15,    58,    57,    61,    62,    60,    59,    63,    64
    16,    62,    61,    65,    66,    64,    63,    67,    68
    17,    66,    65,    69,    70,    68,    67,    71,    72
    18,    70,    69,    73,    74,    72,    71,    75,    76
    19,    74,    73,    77,    78,    76,    75,    79,    80
    20,    78,    77,    81,    82,    80,    79,    83,    84
** ... 180 like lines cut
*SURFACE, NAME=SOLIDSURFACE
    1, S6
    2, S6
    3, S6
    4, S6
    5, S6
    6, S6
    7, S6
    8, S6
    9, S6
    10, S6
    11, S6
    12, S6
    13, S6
    14, S6
    15, S6
    16, S6
    17, S6
    18, S6
    19, S6
    20, S6
** ... 20 like lines cut
** Surfaces based on in
*SURFACE, NAME=Sin
    1, S3
    21, S3
    41, S3
    61, S3
    81, S3
    101, S3
    121, S3
    141, S3
    161, S3
    181, S3
** Surfaces based on out
*SURFACE, NAME=Sout
    20, S5
    40, S5
    60, S5
    80, S5
    100, S5
    120, S5
    140, S5
    160, S5
    180, S5
    200, S5
** Surfaces based on wall
*SURFACE, NAME=Swall
    1, S6
    2, S6
    3, S6
    4, S6
    5, S6
    6, S6
    7, S6
    8, S6
    9, S6
    10, S6
    11, S6
    12, S6
    13, S6
    14, S6
    15, S6
    16, S6
    17, S6
    18, S6
    19, S6
    20, S6
** ... 20 like lines cut
** Surfaces based on side
*SURFACE, NAME=Sside
    1, S1
    21, S1
    2, S1
    22, S1
    1, S2
    21, S2
    2, S2
    22, S2
    3, S1
    23, S1
    3, S2
    23, S2
    4, S1
    24, S1
    4, S2
    24, S2
    5, S1
    25, S1
    5, S2
    25, S2
** ... 380 like lines cut
*MATERIAL,NAME=WATER
*DENSITY
    1.
*FLUID CONSTANTS
    1.,1.
*CONDUCTIVITY
    1.
*SOLID SECTION,ELSET=Eall,MATERIAL=WATER
*INITIAL CONDITIONS,TYPE=FLUID VELOCITY
    Nall,1,1.
    Nall,2,0.
    Nall,3,0.
*INITIAL CONDITIONS,TYPE=PRESSURE
    Nall,1.
*INITIAL CONDITIONS,TYPE=TEMPERATURE
    Nall,0.
*STEP,INCF=300
*CFD,STEADY STATE
    1.,1.,,,0.01
*BOUNDARYF
    Sin,S,1,1,1.
    Sin,S,2,3,0.
    Sin,S,11,11,0.
    Swall,S,1,3,0.
    Swall,S,11,11,0.
    Sout,S,8,8,1.
*MASS FLOW
    Sside,M,0.
*NODE PRINT,FREQUENCYF=300,NSET=Nall
    VF,PSF,TSF
*EL PRINT,ELSET=Eall
    SVF,HFLF
*END STEP
