**
**   Structure: cantilever beam.
**   Test objective: frequency calculation
**                   two halves of beam kept together with
**                   pressure-overclosure=tied
**
*NODE, NSET=Nall
       1,1.000000000000e+00,1.000000000000e+00,4.000000000000e+00
       2,5.000000000000e-01,1.000000000000e+00,4.000000000000e+00
       3,5.000000000000e-01,1.000000000000e+00,3.000000000000e+00
       4,1.000000000000e+00,1.000000000000e+00,3.000000000000e+00
       5,1.000000000000e+00,5.000000000000e-01,4.000000000000e+00
       6,5.000000000000e-01,5.000000000000e-01,4.000000000000e+00
       7,5.000000000000e-01,5.000000000000e-01,3.000000000000e+00
       8,1.000000000000e+00,5.000000000000e-01,3.000000000000e+00
       9,7.500000000000e-01,1.000000000000e+00,4.000000000000e+00
      10,5.000000000000e-01,1.000000000000e+00,3.500000000000e+00
      11,7.500000000000e-01,1.000000000000e+00,3.000000000000e+00
      12,1.000000000000e+00,1.000000000000e+00,3.500000000000e+00
      13,1.000000000000e+00,7.500000000000e-01,4.000000000000e+00
      14,5.000000000000e-01,7.500000000000e-01,4.000000000000e+00
      15,5.000000000000e-01,7.500000000000e-01,3.000000000000e+00
      16,1.000000000000e+00,7.500000000000e-01,3.000000000000e+00
      17,7.500000000000e-01,5.000000000000e-01,4.000000000000e+00
      18,5.000000000000e-01,5.000000000000e-01,3.500000000000e+00
      19,7.500000000000e-01,5.000000000000e-01,3.000000000000e+00
      20,1.000000000000e+00,5.000000000000e-01,3.500000000000e+00
** ... 441 like lines cut
*ELEMENT, TYPE=C3D20, ELSET=Eall
     1,     1,     2,     3,     4,     5,     6,     7,     8,     9,    10,
          11,    12,    17,    18,    19,    20,    13,    14,    15,    16
     2,     4,     3,    21,    22,     8,     7,    23,    24,    11,    25,
          26,    27,    19,    30,    31,    32,    16,    15,    28,    29
     3,    22,    21,    33,    34,    24,    23,    35,    36,    26,    37,
          38,    39,    31,    42,    43,    44,    29,    28,    40,    41
     4,    34,    33,    45,    46,    36,    35,    47,    48,    38,    49,
          50,    51,    43,    54,    55,    56,    41,    40,    52,    53
     5,     5,     6,     7,     8,    57,    58,    59,    60,    17,    18,
          19,    20,    65,    66,    67,    68,    61,    62,    63,    64
     6,     8,     7,    23,    24,    60,    59,    69,    70,    19,    30,
          31,    32,    67,    73,    74,    75,    64,    63,    71,    72
     7,    24,    23,    35,    36,    70,    69,    76,    77,    31,    42,
          43,    44,    74,    80,    81,    82,    72,    71,    78,    79
     8,    36,    35,    47,    48,    77,    76,    83,    84,    43,    54,
          55,    56,    81,    87,    88,    89,    79,    78,    85,    86
     9,     2,    90,    91,     3,     6,    92,    93,     7,    94,    95,
          96,    10,    99,   100,   101,    18,    14,    97,    98,    15
    10,     3,    91,   102,    21,     7,    93,   103,    23,    96,   104,
         105,    25,   101,   107,   108,    30,    15,    98,   106,    28
** ... 102 like lines cut
** Names based on fix
*NSET,NSET=FIX 
45, 
46, 
47, 
48, 
50, 
52, 
53, 
55, 
83, 
84, 
85, 
86, 
88, 
116, 
117, 
119, 
120, 
122, 
138, 
139, 
141, 
*MATERIAL,NAME=EL
*ELASTIC
  210000.0,        .3
*density
7.8e-9
*SOLID SECTION,ELSET=Eall,MATERIAL=EL
*BOUNDARY
FIX, 1
*BOUNDARY
FIX, 2
*BOUNDARY
FIX, 3
** Surfaces based on face1
*SURFACE, NAME=Sface1
1, S3
9, S3
5, S3
13, S3
** Surfaces based on face2
*SURFACE, NAME=Sface2
21, S5
36, S5
26, S5
41, S5
31, S5
46, S5
51, S5
56, S5
61, S5
*CONTACT PAIR,INTERACTION=SI1,TYPE=SURFACE TO SURFACE
Sface2,Sface1
*SURFACE INTERACTION,NAME=SI1
*SURFACE BEHAVIOR,PRESSURE-OVERCLOSURE=TIED
1.e7
*FRICTION
0.2,1.e7
*STEP,PERTURBATION
*FREQUENCY
10
*END STEP
