**
**   Structure: punch on top of cube.
**   Test objective: spring contact; ADJUST with NODE SET.
**
*NODE, NSET=Nall
       1,0.000000000000e+00,0.000000000000e+00,1.000000000000e+00
       2,0.000000000000e+00,0.000000000000e+00,6.666666666667e-01
       3,0.000000000000e+00,3.333333333333e-01,6.666666666667e-01
       4,0.000000000000e+00,3.333333333333e-01,1.000000000000e+00
       5,3.333333333333e-01,0.000000000000e+00,1.000000000000e+00
       6,3.333333333333e-01,0.000000000000e+00,6.666666666667e-01
       7,3.333333333333e-01,3.333333333333e-01,6.666666666667e-01
       8,3.333333333333e-01,3.333333333333e-01,1.000000000000e+00
       9,0.000000000000e+00,0.000000000000e+00,8.333333333333e-01
      10,0.000000000000e+00,1.666666666667e-01,6.666666666667e-01
      11,0.000000000000e+00,3.333333333333e-01,8.333333333333e-01
      12,0.000000000000e+00,1.666666666667e-01,1.000000000000e+00
      13,1.666666666667e-01,0.000000000000e+00,1.000000000000e+00
      14,1.666666666667e-01,0.000000000000e+00,6.666666666667e-01
      15,1.666666666667e-01,3.333333333333e-01,6.666666666667e-01
      16,1.666666666667e-01,3.333333333333e-01,1.000000000000e+00
      17,3.333333333333e-01,0.000000000000e+00,8.333333333333e-01
      18,3.333333333333e-01,1.666666666667e-01,6.666666666667e-01
      19,3.333333333333e-01,3.333333333333e-01,8.333333333333e-01
      20,3.333333333333e-01,1.666666666667e-01,1.000000000000e+00
** ... 396 like lines cut
*ELEMENT, TYPE=C3D20, ELSET=Eall
     1,     1,     2,     3,     4,     5,     6,     7,     8,     9,    10,
          11,    12,    17,    18,    19,    20,    13,    14,    15,    16
     2,     4,     3,    21,    22,     8,     7,    23,    24,    11,    25,
          26,    27,    19,    30,    31,    32,    16,    15,    28,    29
     3,    22,    21,    33,    34,    24,    23,    35,    36,    26,    37,
          38,    39,    31,    42,    43,    44,    29,    28,    40,    41
     4,     5,     6,     7,     8,    45,    46,    47,    48,    17,    18,
          19,    20,    53,    54,    55,    56,    49,    50,    51,    52
     5,     8,     7,    23,    24,    48,    47,    57,    58,    19,    30,
          31,    32,    55,    61,    62,    63,    52,    51,    59,    60
     6,    24,    23,    35,    36,    58,    57,    64,    65,    31,    42,
          43,    44,    62,    68,    69,    70,    60,    59,    66,    67
     7,    45,    46,    47,    48,    71,    72,    73,    74,    53,    54,
          55,    56,    79,    80,    81,    82,    75,    76,    77,    78
     8,    48,    47,    57,    58,    74,    73,    83,    84,    55,    61,
          62,    63,    81,    87,    88,    89,    78,    77,    85,    86
     9,    58,    57,    64,    65,    84,    83,    90,    91,    62,    68,
          69,    70,    88,    94,    95,    96,    86,    85,    92,    93
    10,     2,    97,    98,     3,     6,    99,   100,     7,   101,   102,
         103,    10,   106,   107,   108,    18,    14,   104,   105,    15
** ... 88 like lines cut
*MATERIAL,NAME=EL
*ELASTIC
210000.,.0
*SOLID SECTION,ELSET=Eall,MATERIAL=EL
*NSET,NSET=Nfix 
153, 
154, 
155, 
156, 
158, 
160, 
161, 
163, 
165, 
166, 
167, 
169, 
170, 
172, 
173, 
174, 
176, 
177, 
179, 
180, 
** ... 20 like lines cut
*NSET,NSET=Nfixx 
402, 
*NSET,NSET=Nload 
209, 
210, 
211, 
212, 
217, 
218, 
219, 
220, 
229, 
230, 
233, 
234, 
235, 
241, 
242, 
245, 
246, 
247, 
305, 
306, 
** ... 20 like lines cut
*BOUNDARY
Nfix,1,3
Nload,1,2
Nfixx,1,1
*NSET,NSET=CONTACT
357,353,347,346,280,281,291,298,359,355,
351,360,356,350,352,288,295,302
*SURFACE, NAME=Smast
1, S6 
2, S6 
4, S6 
3, S6 
5, S6 
6, S6 
7, S6 
8, S6 
9, S6 
*SURFACE, NAME=Sslav
34, S2 
43, S2 
35, S2 
44, S2 
36, S2 
45, S2 
52, S2 
53, S2 
54, S2 
*CONTACT PAIR,INTERACTION=SI1,ADJUST=CONTACT,TYPE=SURFACE TO SURFACE
Sslav,Smast
*SURFACE INTERACTION,NAME=SI1
*SURFACE BEHAVIOR,PRESSURE-OVERCLOSURE=LINEAR
1.e7,3.
*STEP,NLGEOM
*STATIC
1.,1.
*DLOAD
28, P1, 100.000000 
37, P1, 100.000000 
29, P1, 100.000000 
38, P1, 100.000000 
30, P1, 100.000000 
39, P1, 100.000000 
46, P1, 100.000000 
47, P1, 100.000000 
48, P1, 100.000000 
*NODE PRINT,NSET=Nall,FREQUENCY=100
U
*END STEP
