**
**   Structure: fluid flow between two plates.
**   Test objective: stationary compressible Couette
**                   with fixed wall temperature.
**                   velocity:linear between 0. and 1.
**                   temperature: maximum of 1.125
**                   slanted mesh
**                   UD,SIMPLE,STEADY STATE
**                   solution not completely converged yet
**
*NODE, NSET=Nall
       1,0.000000000000e+00,1.000000000000e+00,1.000000000000e-01
       2,0.000000000000e+00,1.000000000000e+00,0.000000000000e+00
       3,5.000000000000e-01,1.000000000000e+00,0.000000000000e+00
       4,5.000000000000e-01,1.000000000000e+00,1.000000000000e-01
       5,0.000000000000e+00,9.000000000000e-01,1.000000000000e-01
       6,0.000000000000e+00,9.000000000000e-01,0.000000000000e+00
       7,5.000000000000e-01,9.368182421482e-01,-6.938893903907e-18
       8,5.000000000000e-01,9.368182421482e-01,1.000000000000e-01
       9,1.000000000000e+00,1.000000000000e+00,0.000000000000e+00
      10,1.000000000000e+00,1.000000000000e+00,1.000000000000e-01
      11,1.000000000000e+00,9.736364842965e-01,0.000000000000e+00
      12,1.000000000000e+00,9.736364842965e-01,1.000000000000e-01
      13,0.000000000000e+00,8.000000000000e-01,1.000000000000e-01
      14,0.000000000000e+00,8.000000000000e-01,0.000000000000e+00
      15,5.000000000000e-01,8.699914908864e-01,6.938893903907e-18
      16,5.000000000000e-01,8.699914908864e-01,1.000000000000e-01
      17,1.000000000000e+00,9.399829817728e-01,0.000000000000e+00
      18,1.000000000000e+00,9.399829817728e-01,1.000000000000e-01
      19,0.000000000000e+00,7.000000000000e-01,1.000000000000e-01
      20,0.000000000000e+00,7.000000000000e-01,0.000000000000e+00
** ... 266 like lines cut
*ELEMENT, TYPE=F3D8, ELSET=Eall
     1,     1,     2,     3,     4,     5,     6,     7,     8
     2,     4,     3,     9,    10,     8,     7,    11,    12
     3,     5,     6,     7,     8,    13,    14,    15,    16
     4,     8,     7,    11,    12,    16,    15,    17,    18
     5,    13,    14,    15,    16,    19,    20,    21,    22
     6,    16,    15,    17,    18,    22,    21,    23,    24
     7,    19,    20,    21,    22,    25,    26,    27,    28
     8,    22,    21,    23,    24,    28,    27,    29,    30
     9,    25,    26,    27,    28,    31,    32,    33,    34
    10,    28,    27,    29,    30,    34,    33,    35,    36
    11,    31,    32,    33,    34,    37,    38,    39,    40
    12,    34,    33,    35,    36,    40,    39,    41,    42
    13,    37,    38,    39,    40,    43,    44,    45,    46
    14,    40,    39,    41,    42,    46,    45,    47,    48
    15,    43,    44,    45,    46,    49,    50,    51,    52
    16,    46,    45,    47,    48,    52,    51,    53,    54
    17,    49,    50,    51,    52,    55,    56,    57,    58
    18,    52,    51,    53,    54,    58,    57,    59,    60
    19,    55,    56,    57,    58,    61,    62,    63,    64
    20,    58,    57,    59,    60,    64,    63,    65,    66
** ... 100 like lines cut
** Surfaces based on left
*SURFACE, NAME=Sleft
19, S2
20, S2
39, S2
40, S2
59, S2
60, S2
79, S2
80, S2
99, S2
100, S2
119, S2
120, S2
** Surfaces based on right
*SURFACE, NAME=Sright
1, S1
2, S1
21, S1
22, S1
41, S1
42, S1
61, S1
62, S1
81, S1
82, S1
101, S1
102, S1
** Surfaces based on in
*SURFACE, NAME=Sin
1, S3
3, S3
5, S3
7, S3
9, S3
11, S3
13, S3
15, S3
17, S3
19, S3
** Surfaces based on out
*SURFACE, NAME=Sout
102, S5
104, S5
106, S5
108, S5
110, S5
112, S5
114, S5
116, S5
118, S5
120, S5
** Surfaces based on sliding
*SURFACE, NAME=Ssliding
1, S6
1, S4
2, S4
2, S6
3, S6
3, S4
4, S4
4, S6
21, S4
21, S6
23, S4
23, S6
5, S6
5, S4
6, S4
6, S6
25, S4
25, S6
7, S6
7, S4
** ... 220 like lines cut
*MATERIAL,NAME=AIR
*FLUID CONSTANTS
1.,1.
*SPECIFIC GAS CONSTANT
0.285714286
*CONDUCTIVITY
1.
*SOLID SECTION,ELSET=Eall,MATERIAL=AIR
*INITIAL CONDITIONS,TYPE=FLUID VELOCITY
Nall,1,1.
Nall,2,0.
Nall,3,0.
*INITIAL CONDITIONS,TYPE=PRESSURE
Nall,1.
*INITIAL CONDITIONS,TYPE=TEMPERATURE
Nall,1.
*STEP,INCF=500
*CFD,STEADY STATE,COMPRESSIBLE
1.,1.,,,0.01
*BOUNDARYF
Sright,S,1,,1.
Sright,S,2,3,0.
Sright,S,11,,1.
Sleft,S,1,3,0.
Sleft,S,11,,1.
Sin,S,2,3,0.
Sin,S,8,,1.
1,S3,1,,0.95
3,S3,1,,0.85
5,S3,1,,0.75
7,S3,1,,0.65
9,S3,1,,0.55
11,S3,1,,0.45
13,S3,1,,0.35
15,S3,1,,0.25
17,S3,1,,0.15
19,S3,1,,0.05
1,S3,11,,1.025
3,S3,11,,1.065
5,S3,11,,1.095
7,S3,11,,1.115
9,S3,11,,1.125
11,S3,11,,1.125
13,S3,11,,1.115
15,S3,11,,1.095
17,S3,11,,1.065
19,S3,11,,1.025
*MASSFLOW
Ssliding,M,0.
*NODE PRINT,FREQUENCYF=500,NSET=Nall
VF,PSF,TSF
*END STEP
