**
**   Structure: bolt under pre-tension
**   Test objective: contact, pre-tension
**
*NODE,nset=Nall
         1,  11.253         ,  9.5            ,  0.0            
         2,  11.253         ,  10.025         ,  0.0            
         3,  11.253         ,  10.55          ,  0.0            
         4,  11.253         ,  11.075         ,  0.0            
         5,  11.253         ,  11.6           ,  0.0            
         6,  11.253         ,  12.125         ,  0.0            
         7,  11.253         ,  12.65          ,  0.0            
         8,  11.253         ,  13.175         ,  0.0            
         9,  11.253         ,  13.7           ,  0.0            
        10,  11.253         ,  14.225         ,  0.0            
        11,  11.253         ,  14.75          ,  0.0            
        12,  11.253         ,  15.275         ,  0.0            
        13,  11.253         ,  15.8           ,  0.0            
        14,  11.253         ,  16.325         ,  0.0            
        15,  11.253         ,  16.85          ,  0.0            
        16,  11.253         ,  17.375         ,  0.0            
        17,  11.253         ,  17.9           ,  0.0            
        18,  11.253         ,  18.425         ,  0.0            
        19,  11.253         ,  18.95          ,  0.0            
        20,  11.253         ,  19.475         ,  0.0            
** ... 2369 like lines cut
*ELEMENT,TYPE=CAX8,ELSET=BOLT
      1942,      6243,      6241,      6261,      6277,      6242,      6262,      6278,
      6280
      1941,      6189,      6243,      6277,      6191,      6244,      6280,      6276,
      6190
      1940,      6277,      6261,      6259,      6273,      6278,      6260,      6274,
      6279
      1939,      6191,      6277,      6273,      6193,      6276,      6279,      6272,
      6192
      1938,      6273,      6259,      6087,      6085,      6274,      6258,      6086,
      6275
      1937,      6193,      6273,      6085,      6083,      6272,      6275,      6084,
      6194
      1936,      6239,      5844,      5846,      6268,      6238,      5845,      6269,
      6271
      1935,      6241,      6239,      6268,      6261,      6240,      6271,      6267,
      6262
      1934,      6268,      5846,      5848,      6264,      6269,      5847,      6265,
      6270
      1933,      6261,      6268,      6264,      6259,      6267,      6270,      6263,
      6260
** ... 880 like lines cut
*ELEMENT,TYPE=CAX8,ELSET=FLA
         1,         1,         3,        35,        33,         2,        23,        34,
        22
         2,         3,         5,        37,        35,         4,        24,        36,
        23
         3,         5,         7,        39,        37,         6,        25,        38,
        24
         4,         7,         9,        41,        39,         8,        26,        40,
        25
         5,         9,        11,        43,        41,        10,        27,        42,
        26
         6,        11,        13,        45,        43,        12,        28,        44,
        27
         7,        13,        15,        47,        45,        14,        29,        46,
        28
         8,        15,        17,        49,        47,        16,        30,        48,
        29
         9,        17,        19,        51,        49,        18,        31,        50,
        30
        10,        19,        21,        53,        51,        20,        32,        52,
        31
** ... 420 like lines cut
*ELEMENT,TYPE=CAX8,ELSET=NUT
      1943,      6334,      6339,      6344,      6332,      6338,      6343,      6346,
      6333
      1944,      6332,      6344,      6323,      6325,      6346,      6345,      6324,
      6331
      1945,      6298,      6348,      6341,      6296,      6347,      6350,      6342,
      6297
      1946,      6348,      6344,      6339,      6341,      6349,      6343,      6340,
      6350
      1947,      6300,      6321,      6348,      6298,      6320,      6351,      6347,
      6299
      1948,      6321,      6323,      6344,      6348,      6322,      6345,      6349,
      6351
      1949,      6286,      6288,      6353,      6336,      6287,      6352,      6355,
      6337
      1950,      6336,      6353,      6339,      6334,      6355,      6354,      6338,
      6335
      1951,      6294,      6357,      6290,      6292,      6356,      6359,      6291,
      6293
      1952,      6357,      6353,      6288,      6290,      6358,      6352,      6289,
      6359
** ... 76 like lines cut
*ELSET, ELSET=FL_u
       321,       331,       341,       351,       361,       371,       381,       391,
       401,       411,       421
*ELSET, ELSET=FL_l
        10,        20,        30,        40,        50,        60,        70,        80,
        90,       100,       110
*ELSET, ELSET=NUT_fl1
      1951,      1952,      1963,      1964
*ELSET, ELSET=NUT_fl
      1949,      1961
*ELSET, ELSET=BOLT_fl1
      2347,
*ELSET, ELSET=BOLT_fl
      2317,      2319,      2323,      2325,      2341,      2343,      2350,      2352
*ELSET, ELSET=FL_bolt
        61,        71,        81,        91,       101
*ELSET, ELSET=FL_nut
       330,       340,       350,       360,       370,       380
*ELSET, ELSET=BB
      2138,      2139,      2144,      2145,      2165,      2166,      2175,      2174,
*ELSET, ELSET=BB1
      2171
*MATERIAL, NAME=BOLT
*ELASTIC, TYPE = ISOTROPIC
    210000.0  ,0.3       ,0.0       
*MATERIAL, NAME=FL
*ELASTIC, TYPE = ISOTROPIC
    210000.0  ,0.3       ,0.0       
*SOLID SECTION, ELSET=BOLT, MATERIAL=BOLT
    1,
*SOLID SECTION, ELSET=FLA, MATERIAL=FL
    1.0,
*SOLID SECTION, ELSET=NUT, MATERIAL=BOLT
    1.,
*SURFACE, NAME = BB, TYPE = ELEMENT
    BB,S4
    BB1,S2
*SURFACE, NAME = FL_u, TYPE = ELEMENT
    FL_u,S4
*SURFACE, NAME = FL_NUT, TYPE = ELEMENT
    FL_nut,S2
*SURFACE, NAME = FL_bolt, TYPE = ELEMENT
    FL_bolt,S4
*SURFACE, NAME = BOLT_fl, TYPE = ELEMENT
    BOLT_fl1,S2
    BOLT_fl,S4
*SURFACE, NAME = NUT_fl, TYPE = ELEMENT
    NUT_fl1,S3
    NUT_fl,S1
*SURFACE, NAME = FL_l, TYPE = ELEMENT
    FL_l,S2
*PRE-TENSION SECTION, NODE=4608, SURFACE=BB
    0.,-1.,0.
*SURFACE INTERACTION, NAME=CC
*SURFACE BEHAVIOR,PRESSURE-OVERCLOSURE=LINEAR
 1.E6, 3.143748
*CONTACT PAIR, INTERACTION=CC, ADJUST=0.1,TYPE=SURFACE TO SURFACE
    FL_l, FL_u
*surface interaction, name=nut_fl
*SURFACE BEHAVIOR,PRESSURE-OVERCLOSURE=LINEAR
 1.E6, 3.143748
*CONTACT PAIR, INTERACTION= nut_fl, ADJUST=0.1,TYPE=SURFACE TO SURFACE
    NUT_fl, FL_NUT
*TIE, NAME = BOLT_FL, POSITION TOLERANCE = 0.1
    BOLT_fl, FL_bolt
*EQUATION
    4,
    6438,2,-1.73,5838,2,1.73,5838,1,-1.,6438,1,1.
    4,
    6447,2,-1.73,5836,2,1.73,5836,1,-1.,6447,1,1.
    4,
    6451,2,-1.73,5834,2,1.73,5834,1,-1.,6451,1,1.
    4,
    6448,2,-1.73,5832,2,1.73,5832,1,-1.,6448,1,1.
    4,
    6453,2,-1.73,5830,2,1.73,5830,1,-1.,6453,1,1.
    4,
    6452,2,-1.73,5828,2,1.73,5828,1,-1.,6452,1,1.
    4,
    6439,2,-1.73,5826,2,1.73,5826,1,-1.,6439,1,1.
*BOUNDARY
         1,2,,0.0
         3,2,,0.0
         5,2,,0.0
         7,2,,0.0
         9,2,,0.0
*step
*static
    0.999,1.
*cload
    4608, 1, 4000.
*contact print,set=Nall,frequency=10
    cdisp,cstress
*end step
